confid_0
     RDKit          3D

 45 48  0  0  0  0  0  0  0  0999 V2000
   24.2000   26.2400   35.6900 N   0  0  0  0  0  0  0  0  0  0  0  0
   24.8500   26.2800   34.4800 C   0  0  0  0  0  0  0  0  0  0  0  0
   24.3100   25.7400   33.5400 O   0  0  0  0  0  0  0  0  0  0  0  0
   26.1800   26.9700   34.4700 C   0  0  0  0  0  0  0  0  0  0  0  0
   26.6500   27.6000   35.5500 N   0  0  0  0  0  0  0  0  0  0  0  0
   27.7900   28.2700   35.6200 N   0  0  0  0  0  0  0  0  0  0  0  0
   28.5400   28.3000   34.5100 C   0  0  0  0  0  0  0  0  0  0  0  0
   29.7700   28.9400   34.5600 C   0  0  0  0  0  0  0  0  0  0  0  0
   30.7000   28.8900   33.5000 C   0  0  0  0  0  0  0  0  0  0  0  0
   30.3700   28.1400   32.3700 C   0  0  0  0  0  0  0  0  0  0  0  0
   29.1200   27.5200   32.2800 C   0  0  0  0  0  0  0  0  0  0  0  0
   28.2100   27.6100   33.3300 C   0  0  0  0  0  0  0  0  0  0  0  0
   26.9700   26.9700   33.3100 C   0  0  0  0  0  0  0  0  0  0  0  0
   26.5300   26.2400   32.2200 N   0  0  0  0  0  0  0  0  0  0  0  0
   23.2464   25.2283   36.0568 C   0  0  0  0  0  0  0  0  0  0  0  0
   22.2151   25.5682   36.7913 N   0  0  0  0  0  0  0  0  0  0  0  0
   21.2002   24.6401   37.2348 C   0  0  0  0  0  0  0  0  0  0  0  0
   21.2904   23.3547   36.8918 C   0  0  0  0  0  0  0  0  0  0  0  0
   20.3835   22.2244   37.2277 C   0  0  0  0  0  0  0  0  0  0  0  0
   21.0597   21.0947   36.5875 N   0  0  0  0  0  0  0  0  0  0  0  0
   20.5715   19.7173   36.6494 C   0  0  0  0  0  0  0  0  0  0  0  0
   21.4216   18.8906   37.6077 C   0  0  0  0  0  0  0  0  0  0  0  0
   22.2433   21.5607   35.9165 C   0  0  0  0  0  0  0  0  0  0  0  0
   22.3897   22.8664   36.1008 C   0  0  0  0  0  0  0  0  0  0  0  0
   23.4419   23.7987   35.6783 C   0  0  0  0  0  0  0  0  0  0  0  0
   24.4771   23.4028   35.0794 O   0  0  0  0  0  0  0  0  0  0  0  0
   23.2005   20.6865   35.1587 C   0  0  0  0  0  0  0  0  0  0  0  0
   24.2979   27.0535   36.3394 H   0  0  0  0  0  0  0  0  0  0  0  0
   30.0500   29.4789   35.4574 H   0  0  0  0  0  0  0  0  0  0  0  0
   31.6575   29.3889   33.5759 H   0  0  0  0  0  0  0  0  0  0  0  0
   31.0739   28.0595   31.5517 H   0  0  0  0  0  0  0  0  0  0  0  0
   28.8953   26.9542   31.3856 H   0  0  0  0  0  0  0  0  0  0  0  0
   26.6268   26.6227   31.2535 H   0  0  0  0  0  0  0  0  0  0  0  0
   26.3227   25.2206   32.3146 H   0  0  0  0  0  0  0  0  0  0  0  0
   20.3732   24.9908   37.8378 H   0  0  0  0  0  0  0  0  0  0  0  0
   20.3295   22.0735   38.3269 H   0  0  0  0  0  0  0  0  0  0  0  0
   19.3771   22.3791   36.7838 H   0  0  0  0  0  0  0  0  0  0  0  0
   20.5762   19.2647   35.6356 H   0  0  0  0  0  0  0  0  0  0  0  0
   19.5212   19.7098   37.0135 H   0  0  0  0  0  0  0  0  0  0  0  0
   22.4744   18.8459   37.2607 H   0  0  0  0  0  0  0  0  0  0  0  0
   21.0215   17.8564   37.6626 H   0  0  0  0  0  0  0  0  0  0  0  0
   21.3936   19.3399   38.6230 H   0  0  0  0  0  0  0  0  0  0  0  0
   22.7628   19.6898   34.9558 H   0  0  0  0  0  0  0  0  0  0  0  0
   23.4452   21.1500   34.1802 H   0  0  0  0  0  0  0  0  0  0  0  0
   24.1314   20.5566   35.7488 H   0  0  0  0  0  0  0  0  0  0  0  0
  1  2  1  0
  2  3  2  0
  2  4  1  0
  4  5  2  0
  5  6  1  0
  6  7  2  0
  7  8  1  0
  8  9  2  0
  9 10  1  0
 10 11  2  0
 11 12  1  0
 12 13  2  0
 13 14  1  0
  1 15  1  0
 15 16  2  0
 16 17  1  0
 17 18  2  0
 18 19  1  0
 19 20  1  0
 20 21  1  0
 21 22  1  0
 20 23  1  0
 23 24  2  0
 24 25  1  0
 25 26  2  0
 23 27  1  0
 13  4  1  0
 25 15  1  0
 12  7  1  0
 24 18  1  0
  1 28  1  0
  8 29  1  0
  9 30  1  0
 10 31  1  0
 11 32  1  0
 14 33  1  0
 14 34  1  0
 17 35  1  0
 19 36  1  0
 19 37  1  0
 21 38  1  0
 21 39  1  0
 22 40  1  0
 22 41  1  0
 22 42  1  0
 27 43  1  0
 27 44  1  0
 27 45  1  0
M  END
$$$$
confid_1
     RDKit          3D

 45 48  0  0  0  0  0  0  0  0999 V2000
   24.2000   26.2400   35.6900 N   0  0  0  0  0  0  0  0  0  0  0  0
   24.8500   26.2800   34.4800 C   0  0  0  0  0  0  0  0  0  0  0  0
   24.3100   25.7400   33.5400 O   0  0  0  0  0  0  0  0  0  0  0  0
   26.1800   26.9700   34.4700 C   0  0  0  0  0  0  0  0  0  0  0  0
   26.6500   27.6000   35.5500 N   0  0  0  0  0  0  0  0  0  0  0  0
   27.7900   28.2700   35.6200 N   0  0  0  0  0  0  0  0  0  0  0  0
   28.5400   28.3000   34.5100 C   0  0  0  0  0  0  0  0  0  0  0  0
   29.7700   28.9400   34.5600 C   0  0  0  0  0  0  0  0  0  0  0  0
   30.7000   28.8900   33.5000 C   0  0  0  0  0  0  0  0  0  0  0  0
   30.3700   28.1400   32.3700 C   0  0  0  0  0  0  0  0  0  0  0  0
   29.1200   27.5200   32.2800 C   0  0  0  0  0  0  0  0  0  0  0  0
   28.2100   27.6100   33.3300 C   0  0  0  0  0  0  0  0  0  0  0  0
   26.9700   26.9700   33.3100 C   0  0  0  0  0  0  0  0  0  0  0  0
   26.5300   26.2400   32.2200 N   0  0  0  0  0  0  0  0  0  0  0  0
   23.2468   25.2279   36.0568 C   0  0  0  0  0  0  0  0  0  0  0  0
   22.2103   25.5694   36.7833 N   0  0  0  0  0  0  0  0  0  0  0  0
   21.1941   24.6417   37.2246 C   0  0  0  0  0  0  0  0  0  0  0  0
   21.2917   23.3539   36.8930 C   0  0  0  0  0  0  0  0  0  0  0  0
   20.3829   22.2240   37.2253 C   0  0  0  0  0  0  0  0  0  0  0  0
   21.0535   21.0964   36.5755 N   0  0  0  0  0  0  0  0  0  0  0  0
   20.5334   19.7294   36.5859 C   0  0  0  0  0  0  0  0  0  0  0  0
   19.9284   19.3778   35.2313 C   0  0  0  0  0  0  0  0  0  0  0  0
   22.2649   21.5538   35.9498 C   0  0  0  0  0  0  0  0  0  0  0  0
   22.4016   22.8624   36.1191 C   0  0  0  0  0  0  0  0  0  0  0  0
   23.4474   23.7970   35.6862 C   0  0  0  0  0  0  0  0  0  0  0  0
   24.4760   23.4036   35.0744 O   0  0  0  0  0  0  0  0  0  0  0  0
   23.2347   20.6788   35.2088 C   0  0  0  0  0  0  0  0  0  0  0  0
   24.2964   27.0544   36.3385 H   0  0  0  0  0  0  0  0  0  0  0  0
   30.0500   29.4789   35.4574 H   0  0  0  0  0  0  0  0  0  0  0  0
   31.6575   29.3889   33.5759 H   0  0  0  0  0  0  0  0  0  0  0  0
   31.0739   28.0595   31.5517 H   0  0  0  0  0  0  0  0  0  0  0  0
   28.8953   26.9542   31.3856 H   0  0  0  0  0  0  0  0  0  0  0  0
   26.6268   26.6227   31.2535 H   0  0  0  0  0  0  0  0  0  0  0  0
   26.3227   25.2206   32.3146 H   0  0  0  0  0  0  0  0  0  0  0  0
   20.3595   24.9949   37.8156 H   0  0  0  0  0  0  0  0  0  0  0  0
   19.3755   22.3841   36.7855 H   0  0  0  0  0  0  0  0  0  0  0  0
   20.3319   22.0668   38.3237 H   0  0  0  0  0  0  0  0  0  0  0  0
   21.3416   19.0151   36.8490 H   0  0  0  0  0  0  0  0  0  0  0  0
   19.7415   19.6373   37.3606 H   0  0  0  0  0  0  0  0  0  0  0  0
   20.6940   19.4386   34.4307 H   0  0  0  0  0  0  0  0  0  0  0  0
   19.1001   20.0784   34.9933 H   0  0  0  0  0  0  0  0  0  0  0  0
   19.5253   18.3437   35.2607 H   0  0  0  0  0  0  0  0  0  0  0  0
   24.2522   20.7999   35.6355 H   0  0  0  0  0  0  0  0  0  0  0  0
   22.9610   19.6090   35.2866 H   0  0  0  0  0  0  0  0  0  0  0  0
   23.2487   20.9644   34.1362 H   0  0  0  0  0  0  0  0  0  0  0  0
  1  2  1  0
  2  3  2  0
  2  4  1  0
  4  5  2  0
  5  6  1  0
  6  7  2  0
  7  8  1  0
  8  9  2  0
  9 10  1  0
 10 11  2  0
 11 12  1  0
 12 13  2  0
 13 14  1  0
  1 15  1  0
 15 16  2  0
 16 17  1  0
 17 18  2  0
 18 19  1  0
 19 20  1  0
 20 21  1  0
 21 22  1  0
 20 23  1  0
 23 24  2  0
 24 25  1  0
 25 26  2  0
 23 27  1  0
 13  4  1  0
 25 15  1  0
 12  7  1  0
 24 18  1  0
  1 28  1  0
  8 29  1  0
  9 30  1  0
 10 31  1  0
 11 32  1  0
 14 33  1  0
 14 34  1  0
 17 35  1  0
 19 36  1  0
 19 37  1  0
 21 38  1  0
 21 39  1  0
 22 40  1  0
 22 41  1  0
 22 42  1  0
 27 43  1  0
 27 44  1  0
 27 45  1  0
M  END
$$$$
confid_2
     RDKit          3D

 45 48  0  0  0  0  0  0  0  0999 V2000
   24.2000   26.2400   35.6900 N   0  0  0  0  0  0  0  0  0  0  0  0
   24.8500   26.2800   34.4800 C   0  0  0  0  0  0  0  0  0  0  0  0
   24.3100   25.7400   33.5400 O   0  0  0  0  0  0  0  0  0  0  0  0
   26.1800   26.9700   34.4700 C   0  0  0  0  0  0  0  0  0  0  0  0
   26.6500   27.6000   35.5500 N   0  0  0  0  0  0  0  0  0  0  0  0
   27.7900   28.2700   35.6200 N   0  0  0  0  0  0  0  0  0  0  0  0
   28.5400   28.3000   34.5100 C   0  0  0  0  0  0  0  0  0  0  0  0
   29.7700   28.9400   34.5600 C   0  0  0  0  0  0  0  0  0  0  0  0
   30.7000   28.8900   33.5000 C   0  0  0  0  0  0  0  0  0  0  0  0
   30.3700   28.1400   32.3700 C   0  0  0  0  0  0  0  0  0  0  0  0
   29.1200   27.5200   32.2800 C   0  0  0  0  0  0  0  0  0  0  0  0
   28.2100   27.6100   33.3300 C   0  0  0  0  0  0  0  0  0  0  0  0
   26.9700   26.9700   33.3100 C   0  0  0  0  0  0  0  0  0  0  0  0
   26.5300   26.2400   32.2200 N   0  0  0  0  0  0  0  0  0  0  0  0
   22.7771   26.0912   35.8339 C   0  0  0  0  0  0  0  0  0  0  0  0
   22.3139   25.3831   36.8353 N   0  0  0  0  0  0  0  0  0  0  0  0
   20.9075   25.1730   37.0919 C   0  0  0  0  0  0  0  0  0  0  0  0
   20.0026   25.7235   36.2819 C   0  0  0  0  0  0  0  0  0  0  0  0
   18.5179   25.6513   36.3407 C   0  0  0  0  0  0  0  0  0  0  0  0
   18.1305   26.4627   35.1852 N   0  0  0  0  0  0  0  0  0  0  0  0
   16.7427   26.6880   34.7824 C   0  0  0  0  0  0  0  0  0  0  0  0
   16.3999   25.8505   33.5554 C   0  0  0  0  0  0  0  0  0  0  0  0
   19.3098   26.9770   34.5424 C   0  0  0  0  0  0  0  0  0  0  0  0
   20.3972   26.5417   35.1652 C   0  0  0  0  0  0  0  0  0  0  0  0
   21.8241   26.7755   34.9126 C   0  0  0  0  0  0  0  0  0  0  0  0
   22.2176   27.5453   33.9963 O   0  0  0  0  0  0  0  0  0  0  0  0
   19.3121   27.8746   33.3385 C   0  0  0  0  0  0  0  0  0  0  0  0
   24.7715   26.1845   36.5639 H   0  0  0  0  0  0  0  0  0  0  0  0
   30.0498   29.4792   35.4573 H   0  0  0  0  0  0  0  0  0  0  0  0
   31.6569   29.3901   33.5753 H   0  0  0  0  0  0  0  0  0  0  0  0
   31.0715   28.0646   31.5492 H   0  0  0  0  0  0  0  0  0  0  0  0
   28.8856   26.9764   31.3746 H   0  0  0  0  0  0  0  0  0  0  0  0
   27.1525   25.5360   31.7652 H   0  0  0  0  0  0  0  0  0  0  0  0
   25.6748   26.5391   31.7006 H   0  0  0  0  0  0  0  0  0  0  0  0
   20.5958   24.5688   37.9335 H   0  0  0  0  0  0  0  0  0  0  0  0
   18.1674   24.6046   36.2167 H   0  0  0  0  0  0  0  0  0  0  0  0
   18.1364   26.1043   37.2805 H   0  0  0  0  0  0  0  0  0  0  0  0
   16.5744   27.7662   34.5777 H   0  0  0  0  0  0  0  0  0  0  0  0
   16.0615   26.3954   35.6107 H   0  0  0  0  0  0  0  0  0  0  0  0
   16.5407   24.7722   33.7816 H   0  0  0  0  0  0  0  0  0  0  0  0
   17.0466   26.1267   32.6972 H   0  0  0  0  0  0  0  0  0  0  0  0
   15.3401   26.0214   33.2720 H   0  0  0  0  0  0  0  0  0  0  0  0
   18.2868   28.1840   33.0581 H   0  0  0  0  0  0  0  0  0  0  0  0
   19.8956   28.7935   33.5557 H   0  0  0  0  0  0  0  0  0  0  0  0
   19.7696   27.3423   32.4786 H   0  0  0  0  0  0  0  0  0  0  0  0
  1  2  1  0
  2  3  2  0
  2  4  1  0
  4  5  2  0
  5  6  1  0
  6  7  2  0
  7  8  1  0
  8  9  2  0
  9 10  1  0
 10 11  2  0
 11 12  1  0
 12 13  2  0
 13 14  1  0
  1 15  1  0
 15 16  2  0
 16 17  1  0
 17 18  2  0
 18 19  1  0
 19 20  1  0
 20 21  1  0
 21 22  1  0
 20 23  1  0
 23 24  2  0
 24 25  1  0
 25 26  2  0
 23 27  1  0
 13  4  1  0
 25 15  1  0
 12  7  1  0
 24 18  1  0
  1 28  1  0
  8 29  1  0
  9 30  1  0
 10 31  1  0
 11 32  1  0
 14 33  1  0
 14 34  1  0
 17 35  1  0
 19 36  1  0
 19 37  1  0
 21 38  1  0
 21 39  1  0
 22 40  1  0
 22 41  1  0
 22 42  1  0
 27 43  1  0
 27 44  1  0
 27 45  1  0
M  END
$$$$
confid_3
     RDKit          3D

 45 48  0  0  0  0  0  0  0  0999 V2000
   24.2000   26.2400   35.6900 N   0  0  0  0  0  0  0  0  0  0  0  0
   24.8500   26.2800   34.4800 C   0  0  0  0  0  0  0  0  0  0  0  0
   24.3100   25.7400   33.5400 O   0  0  0  0  0  0  0  0  0  0  0  0
   26.1800   26.9700   34.4700 C   0  0  0  0  0  0  0  0  0  0  0  0
   26.6500   27.6000   35.5500 N   0  0  0  0  0  0  0  0  0  0  0  0
   27.7900   28.2700   35.6200 N   0  0  0  0  0  0  0  0  0  0  0  0
   28.5400   28.3000   34.5100 C   0  0  0  0  0  0  0  0  0  0  0  0
   29.7700   28.9400   34.5600 C   0  0  0  0  0  0  0  0  0  0  0  0
   30.7000   28.8900   33.5000 C   0  0  0  0  0  0  0  0  0  0  0  0
   30.3700   28.1400   32.3700 C   0  0  0  0  0  0  0  0  0  0  0  0
   29.1200   27.5200   32.2800 C   0  0  0  0  0  0  0  0  0  0  0  0
   28.2100   27.6100   33.3300 C   0  0  0  0  0  0  0  0  0  0  0  0
   26.9700   26.9700   33.3100 C   0  0  0  0  0  0  0  0  0  0  0  0
   26.5300   26.2400   32.2200 N   0  0  0  0  0  0  0  0  0  0  0  0
   22.7775   26.0865   35.8334 C   0  0  0  0  0  0  0  0  0  0  0  0
   22.3158   25.3810   36.8373 N   0  0  0  0  0  0  0  0  0  0  0  0
   20.9098   25.1676   37.0934 C   0  0  0  0  0  0  0  0  0  0  0  0
   20.0040   25.7070   36.2769 C   0  0  0  0  0  0  0  0  0  0  0  0
   18.5194   25.6333   36.3371 C   0  0  0  0  0  0  0  0  0  0  0  0
   18.1300   26.4582   35.1921 N   0  0  0  0  0  0  0  0  0  0  0  0
   16.7405   26.7309   34.8252 C   0  0  0  0  0  0  0  0  0  0  0  0
   16.3575   28.1578   35.2019 C   0  0  0  0  0  0  0  0  0  0  0  0
   19.3087   26.9352   34.5203 C   0  0  0  0  0  0  0  0  0  0  0  0
   20.3971   26.5147   35.1519 C   0  0  0  0  0  0  0  0  0  0  0  0
   21.8232   26.7637   34.9085 C   0  0  0  0  0  0  0  0  0  0  0  0
   22.2143   27.5492   34.0045 O   0  0  0  0  0  0  0  0  0  0  0  0
   19.3061   27.8225   33.3089 C   0  0  0  0  0  0  0  0  0  0  0  0
   24.7712   26.1875   36.5642 H   0  0  0  0  0  0  0  0  0  0  0  0
   30.0498   29.4792   35.4573 H   0  0  0  0  0  0  0  0  0  0  0  0
   31.6569   29.3901   33.5753 H   0  0  0  0  0  0  0  0  0  0  0  0
   31.0715   28.0646   31.5492 H   0  0  0  0  0  0  0  0  0  0  0  0
   28.8856   26.9764   31.3746 H   0  0  0  0  0  0  0  0  0  0  0  0
   27.1526   25.5362   31.7651 H   0  0  0  0  0  0  0  0  0  0  0  0
   25.6748   26.5391   31.7007 H   0  0  0  0  0  0  0  0  0  0  0  0
   20.5991   24.5710   37.9408 H   0  0  0  0  0  0  0  0  0  0  0  0
   18.1391   26.0755   37.2826 H   0  0  0  0  0  0  0  0  0  0  0  0
   18.1693   24.5878   36.2018 H   0  0  0  0  0  0  0  0  0  0  0  0
   16.5926   26.5626   33.7379 H   0  0  0  0  0  0  0  0  0  0  0  0
   16.0675   26.0306   35.3662 H   0  0  0  0  0  0  0  0  0  0  0  0
   15.2931   28.3382   34.9427 H   0  0  0  0  0  0  0  0  0  0  0  0
   16.9853   28.8908   34.6547 H   0  0  0  0  0  0  0  0  0  0  0  0
   16.4909   28.3103   36.2940 H   0  0  0  0  0  0  0  0  0  0  0  0
   20.0190   27.4344   32.5518 H   0  0  0  0  0  0  0  0  0  0  0  0
   19.6024   28.8513   33.6017 H   0  0  0  0  0  0  0  0  0  0  0  0
   18.3049   27.8586   32.8371 H   0  0  0  0  0  0  0  0  0  0  0  0
  1  2  1  0
  2  3  2  0
  2  4  1  0
  4  5  2  0
  5  6  1  0
  6  7  2  0
  7  8  1  0
  8  9  2  0
  9 10  1  0
 10 11  2  0
 11 12  1  0
 12 13  2  0
 13 14  1  0
  1 15  1  0
 15 16  2  0
 16 17  1  0
 17 18  2  0
 18 19  1  0
 19 20  1  0
 20 21  1  0
 21 22  1  0
 20 23  1  0
 23 24  2  0
 24 25  1  0
 25 26  2  0
 23 27  1  0
 13  4  1  0
 25 15  1  0
 12  7  1  0
 24 18  1  0
  1 28  1  0
  8 29  1  0
  9 30  1  0
 10 31  1  0
 11 32  1  0
 14 33  1  0
 14 34  1  0
 17 35  1  0
 19 36  1  0
 19 37  1  0
 21 38  1  0
 21 39  1  0
 22 40  1  0
 22 41  1  0
 22 42  1  0
 27 43  1  0
 27 44  1  0
 27 45  1  0
M  END
$$$$
