confid_0
     RDKit          3D

 45 49  0  0  0  0  0  0  0  0999 V2000
   25.3300   26.2600   34.7600 N   0  0  0  0  0  0  0  0  0  0  0  0
   26.1200   25.9200   33.6900 C   0  0  0  0  0  0  0  0  0  0  0  0
   25.6300   25.1100   32.9400 O   0  0  0  0  0  0  0  0  0  0  0  0
   27.5200   26.3800   33.4600 C   0  0  0  0  0  0  0  0  0  0  0  0
   28.1600   26.6300   34.6100 N   0  0  0  0  0  0  0  0  0  0  0  0
   29.4800   26.8500   34.5700 N   0  0  0  0  0  0  0  0  0  0  0  0
   30.1900   26.7800   33.4400 C   0  0  0  0  0  0  0  0  0  0  0  0
   31.5600   27.0500   33.5000 C   0  0  0  0  0  0  0  0  0  0  0  0
   32.2700   27.2400   32.3100 C   0  0  0  0  0  0  0  0  0  0  0  0
   31.6100   27.2500   31.0800 C   0  0  0  0  0  0  0  0  0  0  0  0
   30.2700   26.8700   31.0600 C   0  0  0  0  0  0  0  0  0  0  0  0
   29.5100   26.6900   32.2300 C   0  0  0  0  0  0  0  0  0  0  0  0
   28.1400   26.4100   32.2000 C   0  0  0  0  0  0  0  0  0  0  0  0
   27.4300   26.1300   31.0500 N   0  0  0  0  0  0  0  0  0  0  0  0
   24.0067   25.7469   34.9623 C   0  0  0  0  0  0  0  0  0  0  0  0
   23.7447   24.9087   35.9107 N   0  0  0  0  0  0  0  0  0  0  0  0
   22.3994   24.4776   35.7210 C   0  0  0  0  0  0  0  0  0  0  0  0
   21.8483   25.0559   34.6610 C   0  0  0  0  0  0  0  0  0  0  0  0
   20.5616   24.6402   34.0293 C   0  0  0  0  0  0  0  0  0  0  0  0
   19.7427   25.8134   33.7341 N   0  0  0  0  0  0  0  0  0  0  0  0
   18.4434   25.9604   34.3925 C   0  0  0  0  0  0  0  0  0  0  0  0
   20.0523   26.6319   32.5947 C   0  0  0  0  0  0  0  0  0  0  0  0
   19.1136   27.0259   31.8487 O   0  0  0  0  0  0  0  0  0  0  0  0
   21.4361   27.0772   32.3047 C   0  0  0  0  0  0  0  0  0  0  0  0
   21.7299   27.9692   31.3623 C   0  0  0  0  0  0  0  0  0  0  0  0
   23.1208   28.3813   31.5014 C   0  0  0  0  0  0  0  0  0  0  0  0
   23.6634   27.7431   32.5241 C   0  0  0  0  0  0  0  0  0  0  0  0
   22.6628   26.8334   33.0853 C   0  0  0  0  0  0  0  0  0  0  0  0
   22.8396   25.9594   34.0924 C   0  0  0  0  0  0  0  0  0  0  0  0
   25.7633   26.7756   35.5580 H   0  0  0  0  0  0  0  0  0  0  0  0
   32.0667   27.1429   34.4530 H   0  0  0  0  0  0  0  0  0  0  0  0
   33.3284   27.4627   32.3495 H   0  0  0  0  0  0  0  0  0  0  0  0
   32.1496   27.4414   30.1613 H   0  0  0  0  0  0  0  0  0  0  0  0
   29.7983   26.8254   30.0886 H   0  0  0  0  0  0  0  0  0  0  0  0
   26.4125   26.3504   30.9740 H   0  0  0  0  0  0  0  0  0  0  0  0
   27.8911   25.7240   30.2070 H   0  0  0  0  0  0  0  0  0  0  0  0
   21.9329   23.7027   36.3154 H   0  0  0  0  0  0  0  0  0  0  0  0
   20.7766   24.0848   33.0909 H   0  0  0  0  0  0  0  0  0  0  0  0
   20.0163   23.9439   34.7051 H   0  0  0  0  0  0  0  0  0  0  0  0
   18.5160   25.6595   35.4594 H   0  0  0  0  0  0  0  0  0  0  0  0
   18.1101   27.0200   34.3616 H   0  0  0  0  0  0  0  0  0  0  0  0
   17.6910   25.3237   33.8814 H   0  0  0  0  0  0  0  0  0  0  0  0
   21.0245   28.3995   30.6629 H   0  0  0  0  0  0  0  0  0  0  0  0
   23.6200   29.1335   30.9052 H   0  0  0  0  0  0  0  0  0  0  0  0
   24.6663   27.9245   32.8749 H   0  0  0  0  0  0  0  0  0  0  0  0
  1  2  1  0
  2  3  2  0
  2  4  1  0
  4  5  2  0
  5  6  1  0
  6  7  2  0
  7  8  1  0
  8  9  2  0
  9 10  1  0
 10 11  2  0
 11 12  1  0
 12 13  2  0
 13 14  1  0
  1 15  1  0
 15 16  2  0
 16 17  1  0
 17 18  2  0
 18 19  1  0
 19 20  1  0
 20 21  1  0
 20 22  1  0
 22 23  2  0
 22 24  1  0
 24 25  2  0
 25 26  1  0
 26 27  2  0
 27 28  1  0
 28 29  2  0
 13  4  1  0
 29 15  1  0
 12  7  1  0
 29 18  1  0
 28 24  1  0
  1 30  1  0
  8 31  1  0
  9 32  1  0
 10 33  1  0
 11 34  1  0
 14 35  1  0
 14 36  1  0
 17 37  1  0
 19 38  1  0
 19 39  1  0
 21 40  1  0
 21 41  1  0
 21 42  1  0
 25 43  1  0
 26 44  1  0
 27 45  1  0
M  END
$$$$
confid_1
     RDKit          3D

 45 49  0  0  0  0  0  0  0  0999 V2000
   25.3300   26.2600   34.7600 N   0  0  0  0  0  0  0  0  0  0  0  0
   26.1200   25.9200   33.6900 C   0  0  0  0  0  0  0  0  0  0  0  0
   25.6300   25.1100   32.9400 O   0  0  0  0  0  0  0  0  0  0  0  0
   27.5200   26.3800   33.4600 C   0  0  0  0  0  0  0  0  0  0  0  0
   28.1600   26.6300   34.6100 N   0  0  0  0  0  0  0  0  0  0  0  0
   29.4800   26.8500   34.5700 N   0  0  0  0  0  0  0  0  0  0  0  0
   30.1900   26.7800   33.4400 C   0  0  0  0  0  0  0  0  0  0  0  0
   31.5600   27.0500   33.5000 C   0  0  0  0  0  0  0  0  0  0  0  0
   32.2700   27.2400   32.3100 C   0  0  0  0  0  0  0  0  0  0  0  0
   31.6100   27.2500   31.0800 C   0  0  0  0  0  0  0  0  0  0  0  0
   30.2700   26.8700   31.0600 C   0  0  0  0  0  0  0  0  0  0  0  0
   29.5100   26.6900   32.2300 C   0  0  0  0  0  0  0  0  0  0  0  0
   28.1400   26.4100   32.2000 C   0  0  0  0  0  0  0  0  0  0  0  0
   27.4300   26.1300   31.0500 N   0  0  0  0  0  0  0  0  0  0  0  0
   23.9883   25.7870   34.9315 C   0  0  0  0  0  0  0  0  0  0  0  0
   22.9663   26.5437   34.6994 N   0  0  0  0  0  0  0  0  0  0  0  0
   21.8078   25.7246   34.8394 C   0  0  0  0  0  0  0  0  0  0  0  0
   22.1300   24.4782   35.1633 C   0  0  0  0  0  0  0  0  0  0  0  0
   21.1993   23.3124   35.1281 C   0  0  0  0  0  0  0  0  0  0  0  0
   21.3460   22.5122   36.3427 N   0  0  0  0  0  0  0  0  0  0  0  0
   20.2755   22.4803   37.3426 C   0  0  0  0  0  0  0  0  0  0  0  0
   22.4749   21.6378   36.5033 C   0  0  0  0  0  0  0  0  0  0  0  0
   22.2999   20.5036   37.0281 O   0  0  0  0  0  0  0  0  0  0  0  0
   23.8497   22.0502   36.1287 C   0  0  0  0  0  0  0  0  0  0  0  0
   24.9235   21.3020   36.3686 C   0  0  0  0  0  0  0  0  0  0  0  0
   26.1271   22.0888   36.1301 C   0  0  0  0  0  0  0  0  0  0  0  0
   25.7825   23.3082   35.7528 C   0  0  0  0  0  0  0  0  0  0  0  0
   24.3221   23.3723   35.6787 C   0  0  0  0  0  0  0  0  0  0  0  0
   23.5799   24.4183   35.2767 C   0  0  0  0  0  0  0  0  0  0  0  0
   25.6238   27.0730   35.3462 H   0  0  0  0  0  0  0  0  0  0  0  0
   32.0667   27.1429   34.4530 H   0  0  0  0  0  0  0  0  0  0  0  0
   33.3284   27.4627   32.3495 H   0  0  0  0  0  0  0  0  0  0  0  0
   32.1496   27.4414   30.1613 H   0  0  0  0  0  0  0  0  0  0  0  0
   29.7983   26.8254   30.0886 H   0  0  0  0  0  0  0  0  0  0  0  0
   27.8914   25.7239   30.2072 H   0  0  0  0  0  0  0  0  0  0  0  0
   26.4123   26.3489   30.9739 H   0  0  0  0  0  0  0  0  0  0  0  0
   20.8058   26.0659   34.6137 H   0  0  0  0  0  0  0  0  0  0  0  0
   21.4279   22.6876   34.2378 H   0  0  0  0  0  0  0  0  0  0  0  0
   20.1516   23.6672   35.0133 H   0  0  0  0  0  0  0  0  0  0  0  0
   19.7869   21.4832   37.3407 H   0  0  0  0  0  0  0  0  0  0  0  0
   20.7003   22.6779   38.3494 H   0  0  0  0  0  0  0  0  0  0  0  0
   19.5047   23.2535   37.1393 H   0  0  0  0  0  0  0  0  0  0  0  0
   24.9117   20.2972   36.7714 H   0  0  0  0  0  0  0  0  0  0  0  0
   27.1435   21.7525   36.2855 H   0  0  0  0  0  0  0  0  0  0  0  0
   26.4917   24.0981   35.5663 H   0  0  0  0  0  0  0  0  0  0  0  0
  1  2  1  0
  2  3  2  0
  2  4  1  0
  4  5  2  0
  5  6  1  0
  6  7  2  0
  7  8  1  0
  8  9  2  0
  9 10  1  0
 10 11  2  0
 11 12  1  0
 12 13  2  0
 13 14  1  0
  1 15  1  0
 15 16  2  0
 16 17  1  0
 17 18  2  0
 18 19  1  0
 19 20  1  0
 20 21  1  0
 20 22  1  0
 22 23  2  0
 22 24  1  0
 24 25  2  0
 25 26  1  0
 26 27  2  0
 27 28  1  0
 28 29  2  0
 13  4  1  0
 29 15  1  0
 12  7  1  0
 29 18  1  0
 28 24  1  0
  1 30  1  0
  8 31  1  0
  9 32  1  0
 10 33  1  0
 11 34  1  0
 14 35  1  0
 14 36  1  0
 17 37  1  0
 19 38  1  0
 19 39  1  0
 21 40  1  0
 21 41  1  0
 21 42  1  0
 25 43  1  0
 26 44  1  0
 27 45  1  0
M  END
$$$$
confid_2
     RDKit          3D

 45 49  0  0  0  0  0  0  0  0999 V2000
   25.3300   26.2600   34.7600 N   0  0  0  0  0  0  0  0  0  0  0  0
   26.1200   25.9200   33.6900 C   0  0  0  0  0  0  0  0  0  0  0  0
   25.6300   25.1100   32.9400 O   0  0  0  0  0  0  0  0  0  0  0  0
   27.5200   26.3800   33.4600 C   0  0  0  0  0  0  0  0  0  0  0  0
   28.1600   26.6300   34.6100 N   0  0  0  0  0  0  0  0  0  0  0  0
   29.4800   26.8500   34.5700 N   0  0  0  0  0  0  0  0  0  0  0  0
   30.1900   26.7800   33.4400 C   0  0  0  0  0  0  0  0  0  0  0  0
   31.5600   27.0500   33.5000 C   0  0  0  0  0  0  0  0  0  0  0  0
   32.2700   27.2400   32.3100 C   0  0  0  0  0  0  0  0  0  0  0  0
   31.6100   27.2500   31.0800 C   0  0  0  0  0  0  0  0  0  0  0  0
   30.2700   26.8700   31.0600 C   0  0  0  0  0  0  0  0  0  0  0  0
   29.5100   26.6900   32.2300 C   0  0  0  0  0  0  0  0  0  0  0  0
   28.1400   26.4100   32.2000 C   0  0  0  0  0  0  0  0  0  0  0  0
   27.4300   26.1300   31.0500 N   0  0  0  0  0  0  0  0  0  0  0  0
   23.9297   25.9564   34.8564 C   0  0  0  0  0  0  0  0  0  0  0  0
   23.4336   25.3648   35.8933 N   0  0  0  0  0  0  0  0  0  0  0  0
   22.0692   25.0768   35.5920 C   0  0  0  0  0  0  0  0  0  0  0  0
   21.7490   25.4590   34.3612 C   0  0  0  0  0  0  0  0  0  0  0  0
   20.3595   25.5159   33.8150 C   0  0  0  0  0  0  0  0  0  0  0  0
   20.3489   25.1006   32.4108 N   0  0  0  0  0  0  0  0  0  0  0  0
   19.7450   23.8233   32.0219 C   0  0  0  0  0  0  0  0  0  0  0  0
   20.8182   25.9927   31.3842 C   0  0  0  0  0  0  0  0  0  0  0  0
   20.2613   25.9759   30.2521 O   0  0  0  0  0  0  0  0  0  0  0  0
   21.9622   26.9075   31.6066 C   0  0  0  0  0  0  0  0  0  0  0  0
   22.3670   27.8178   30.7255 C   0  0  0  0  0  0  0  0  0  0  0  0
   23.6207   28.4092   31.1834 C   0  0  0  0  0  0  0  0  0  0  0  0
   23.9780   27.8444   32.3254 C   0  0  0  0  0  0  0  0  0  0  0  0
   22.9621   26.8551   32.6825 C   0  0  0  0  0  0  0  0  0  0  0  0
   22.9236   26.1077   33.7964 C   0  0  0  0  0  0  0  0  0  0  0  0
   25.7874   26.6566   35.6109 H   0  0  0  0  0  0  0  0  0  0  0  0
   32.0667   27.1429   34.4530 H   0  0  0  0  0  0  0  0  0  0  0  0
   33.3284   27.4627   32.3495 H   0  0  0  0  0  0  0  0  0  0  0  0
   32.1496   27.4414   30.1613 H   0  0  0  0  0  0  0  0  0  0  0  0
   29.7983   26.8254   30.0886 H   0  0  0  0  0  0  0  0  0  0  0  0
   27.8913   25.7244   30.2070 H   0  0  0  0  0  0  0  0  0  0  0  0
   26.4123   26.3494   30.9738 H   0  0  0  0  0  0  0  0  0  0  0  0
   21.3788   24.6454   36.3052 H   0  0  0  0  0  0  0  0  0  0  0  0
   19.9723   26.5540   33.9022 H   0  0  0  0  0  0  0  0  0  0  0  0
   19.6902   24.8680   34.4225 H   0  0  0  0  0  0  0  0  0  0  0  0
   19.4940   23.2038   32.9086 H   0  0  0  0  0  0  0  0  0  0  0  0
   20.4596   23.2491   31.3950 H   0  0  0  0  0  0  0  0  0  0  0  0
   18.8154   24.0065   31.4429 H   0  0  0  0  0  0  0  0  0  0  0  0
   21.8711   28.0540   29.7928 H   0  0  0  0  0  0  0  0  0  0  0  0
   24.1706   29.1941   30.6817 H   0  0  0  0  0  0  0  0  0  0  0  0
   24.8416   28.1387   32.9038 H   0  0  0  0  0  0  0  0  0  0  0  0
  1  2  1  0
  2  3  2  0
  2  4  1  0
  4  5  2  0
  5  6  1  0
  6  7  2  0
  7  8  1  0
  8  9  2  0
  9 10  1  0
 10 11  2  0
 11 12  1  0
 12 13  2  0
 13 14  1  0
  1 15  1  0
 15 16  2  0
 16 17  1  0
 17 18  2  0
 18 19  1  0
 19 20  1  0
 20 21  1  0
 20 22  1  0
 22 23  2  0
 22 24  1  0
 24 25  2  0
 25 26  1  0
 26 27  2  0
 27 28  1  0
 28 29  2  0
 13  4  1  0
 29 15  1  0
 12  7  1  0
 29 18  1  0
 28 24  1  0
  1 30  1  0
  8 31  1  0
  9 32  1  0
 10 33  1  0
 11 34  1  0
 14 35  1  0
 14 36  1  0
 17 37  1  0
 19 38  1  0
 19 39  1  0
 21 40  1  0
 21 41  1  0
 21 42  1  0
 25 43  1  0
 26 44  1  0
 27 45  1  0
M  END
$$$$
