confid_0
     RDKit          3D

 47 51  0  0  0  0  0  0  0  0999 V2000
   24.6900   26.1200   35.5300 N   0  0  0  0  0  0  0  0  0  0  0  0
   25.6600   25.6700   34.6600 C   0  0  0  0  0  0  0  0  0  0  0  0
   25.2400   25.0100   33.7200 O   0  0  0  0  0  0  0  0  0  0  0  0
   27.0300   26.2200   34.8800 C   0  0  0  0  0  0  0  0  0  0  0  0
   27.3500   26.7300   36.0700 N   0  0  0  0  0  0  0  0  0  0  0  0
   28.5700   27.1800   36.3300 N   0  0  0  0  0  0  0  0  0  0  0  0
   29.5300   27.1100   35.3900 C   0  0  0  0  0  0  0  0  0  0  0  0
   30.8300   27.5700   35.6500 C   0  0  0  0  0  0  0  0  0  0  0  0
   31.8500   27.5400   34.6900 C   0  0  0  0  0  0  0  0  0  0  0  0
   31.5100   27.1200   33.4000 C   0  0  0  0  0  0  0  0  0  0  0  0
   30.2200   26.6300   33.1100 C   0  0  0  0  0  0  0  0  0  0  0  0
   29.2400   26.6600   34.1000 C   0  0  0  0  0  0  0  0  0  0  0  0
   27.9300   26.2600   33.8100 C   0  0  0  0  0  0  0  0  0  0  0  0
   27.5200   25.7100   32.6100 N   0  0  0  0  0  0  0  0  0  0  0  0
   23.4184   25.4790   35.7675 C   0  0  0  0  0  0  0  0  0  0  0  0
   23.1947   24.2934   35.2653 N   0  0  0  0  0  0  0  0  0  0  0  0
   22.0887   23.3688   35.2860 C   0  0  0  0  0  0  0  0  0  0  0  0
   20.7937   23.6406   35.4797 C   0  0  0  0  0  0  0  0  0  0  0  0
   19.5487   22.7958   35.4155 C   0  0  0  0  0  0  0  0  0  0  0  0
   18.6673   23.8235   35.7233 O   0  0  0  0  0  0  0  0  0  0  0  0
   19.7549   24.6828   35.8270 C   0  0  0  0  0  0  0  0  0  0  0  0
   19.6259   25.8426   34.8155 C   0  0  0  0  0  0  0  0  0  0  0  0
   20.8520   26.7677   34.7745 C   0  0  0  0  0  0  0  0  0  0  0  0
   21.4463   26.9167   36.1447 C   0  0  0  0  0  0  0  0  0  0  0  0
   22.4532   26.2002   36.6148 C   0  0  0  0  0  0  0  0  0  0  0  0
   22.7192   26.5766   38.0363 C   0  0  0  0  0  0  0  0  0  0  0  0
   21.5770   27.5538   38.3549 C   0  0  0  0  0  0  0  0  0  0  0  0
   20.8964   27.7243   37.1205 O   0  0  0  0  0  0  0  0  0  0  0  0
   24.8600   27.0204   36.0331 H   0  0  0  0  0  0  0  0  0  0  0  0
   31.0672   27.9418   36.6392 H   0  0  0  0  0  0  0  0  0  0  0  0
   32.8484   27.8884   34.9210 H   0  0  0  0  0  0  0  0  0  0  0  0
   32.2640   27.1260   32.6234 H   0  0  0  0  0  0  0  0  0  0  0  0
   30.0101   26.3032   32.1004 H   0  0  0  0  0  0  0  0  0  0  0  0
   28.1316   25.0436   32.0891 H   0  0  0  0  0  0  0  0  0  0  0  0
   26.6930   26.1017   32.1059 H   0  0  0  0  0  0  0  0  0  0  0  0
   22.3169   22.3495   35.0008 H   0  0  0  0  0  0  0  0  0  0  0  0
   19.5403   22.0046   36.1993 H   0  0  0  0  0  0  0  0  0  0  0  0
   19.3607   22.3997   34.3915 H   0  0  0  0  0  0  0  0  0  0  0  0
   19.8516   25.0311   36.8811 H   0  0  0  0  0  0  0  0  0  0  0  0
   18.7404   26.4479   35.1065 H   0  0  0  0  0  0  0  0  0  0  0  0
   19.4318   25.4429   33.7951 H   0  0  0  0  0  0  0  0  0  0  0  0
   21.5974   26.3590   34.0601 H   0  0  0  0  0  0  0  0  0  0  0  0
   20.5495   27.7693   34.3968 H   0  0  0  0  0  0  0  0  0  0  0  0
   23.7050   27.0817   38.1361 H   0  0  0  0  0  0  0  0  0  0  0  0
   22.6804   25.6765   38.6886 H   0  0  0  0  0  0  0  0  0  0  0  0
   20.8841   27.1133   39.1044 H   0  0  0  0  0  0  0  0  0  0  0  0
   21.9683   28.5306   38.7168 H   0  0  0  0  0  0  0  0  0  0  0  0
  1  2  1  0
  2  3  2  0
  2  4  1  0
  4  5  2  0
  5  6  1  0
  6  7  2  0
  7  8  1  0
  8  9  2  0
  9 10  1  0
 10 11  2  0
 11 12  1  0
 12 13  2  0
 13 14  1  0
  1 15  1  0
 15 16  2  0
 16 17  1  0
 17 18  2  0
 18 19  1  0
 19 20  1  0
 20 21  1  0
 21 22  1  0
 22 23  1  0
 23 24  1  0
 24 25  2  0
 25 26  1  0
 26 27  1  0
 27 28  1  0
 13  4  1  0
 25 15  1  0
 12  7  1  0
 21 18  1  0
 28 24  1  0
  1 29  1  0
  8 30  1  0
  9 31  1  0
 10 32  1  0
 11 33  1  0
 14 34  1  0
 14 35  1  0
 17 36  1  0
 19 37  1  0
 19 38  1  0
 21 39  1  0
 22 40  1  0
 22 41  1  0
 23 42  1  0
 23 43  1  0
 26 44  1  0
 26 45  1  0
 27 46  1  0
 27 47  1  0
M  END
$$$$
confid_1
     RDKit          3D

 47 51  0  0  0  0  0  0  0  0999 V2000
   24.6900   26.1200   35.5300 N   0  0  0  0  0  0  0  0  0  0  0  0
   25.6600   25.6700   34.6600 C   0  0  0  0  0  0  0  0  0  0  0  0
   25.2400   25.0100   33.7200 O   0  0  0  0  0  0  0  0  0  0  0  0
   27.0300   26.2200   34.8800 C   0  0  0  0  0  0  0  0  0  0  0  0
   27.3500   26.7300   36.0700 N   0  0  0  0  0  0  0  0  0  0  0  0
   28.5700   27.1800   36.3300 N   0  0  0  0  0  0  0  0  0  0  0  0
   29.5300   27.1100   35.3900 C   0  0  0  0  0  0  0  0  0  0  0  0
   30.8300   27.5700   35.6500 C   0  0  0  0  0  0  0  0  0  0  0  0
   31.8500   27.5400   34.6900 C   0  0  0  0  0  0  0  0  0  0  0  0
   31.5100   27.1200   33.4000 C   0  0  0  0  0  0  0  0  0  0  0  0
   30.2200   26.6300   33.1100 C   0  0  0  0  0  0  0  0  0  0  0  0
   29.2400   26.6600   34.1000 C   0  0  0  0  0  0  0  0  0  0  0  0
   27.9300   26.2600   33.8100 C   0  0  0  0  0  0  0  0  0  0  0  0
   27.5200   25.7100   32.6100 N   0  0  0  0  0  0  0  0  0  0  0  0
   23.5092   25.3700   35.8305 C   0  0  0  0  0  0  0  0  0  0  0  0
   23.6272   24.0847   36.0203 N   0  0  0  0  0  0  0  0  0  0  0  0
   22.7349   22.9897   36.3023 C   0  0  0  0  0  0  0  0  0  0  0  0
   21.4778   23.0405   36.7551 C   0  0  0  0  0  0  0  0  0  0  0  0
   20.4646   21.9817   37.0951 C   0  0  0  0  0  0  0  0  0  0  0  0
   19.4580   22.8633   37.4501 O   0  0  0  0  0  0  0  0  0  0  0  0
   20.3177   23.9131   37.1658 C   0  0  0  0  0  0  0  0  0  0  0  0
   20.5661   24.7573   38.4336 C   0  0  0  0  0  0  0  0  0  0  0  0
   21.6789   25.7916   38.2616 C   0  0  0  0  0  0  0  0  0  0  0  0
   21.5605   26.4495   36.9228 C   0  0  0  0  0  0  0  0  0  0  0  0
   22.2352   26.1088   35.8366 C   0  0  0  0  0  0  0  0  0  0  0  0
   21.8025   26.9657   34.6901 C   0  0  0  0  0  0  0  0  0  0  0  0
   20.6703   27.8120   35.2913 C   0  0  0  0  0  0  0  0  0  0  0  0
   20.6147   27.4210   36.6539 O   0  0  0  0  0  0  0  0  0  0  0  0
   24.7465   27.1020   35.8853 H   0  0  0  0  0  0  0  0  0  0  0  0
   31.0671   27.9416   36.6394 H   0  0  0  0  0  0  0  0  0  0  0  0
   32.8485   27.8871   34.9217 H   0  0  0  0  0  0  0  0  0  0  0  0
   32.2653   27.1206   32.6247 H   0  0  0  0  0  0  0  0  0  0  0  0
   30.0112   26.2787   32.1079 H   0  0  0  0  0  0  0  0  0  0  0  0
   27.6866   26.2296   31.7186 H   0  0  0  0  0  0  0  0  0  0  0  0
   27.3441   24.6829   32.5407 H   0  0  0  0  0  0  0  0  0  0  0  0
   23.1499   21.9973   36.1811 H   0  0  0  0  0  0  0  0  0  0  0  0
   20.7817   21.3621   37.9611 H   0  0  0  0  0  0  0  0  0  0  0  0
   20.1763   21.3732   36.2085 H   0  0  0  0  0  0  0  0  0  0  0  0
   19.9173   24.5010   36.3146 H   0  0  0  0  0  0  0  0  0  0  0  0
   19.6202   25.2895   38.6824 H   0  0  0  0  0  0  0  0  0  0  0  0
   20.8087   24.0981   39.2942 H   0  0  0  0  0  0  0  0  0  0  0  0
   22.6694   25.3065   38.3826 H   0  0  0  0  0  0  0  0  0  0  0  0
   21.5850   26.5614   39.0558 H   0  0  0  0  0  0  0  0  0  0  0  0
   22.6372   27.6106   34.3404 H   0  0  0  0  0  0  0  0  0  0  0  0
   21.4305   26.3297   33.8554 H   0  0  0  0  0  0  0  0  0  0  0  0
   20.8984   28.8939   35.2174 H   0  0  0  0  0  0  0  0  0  0  0  0
   19.7023   27.5922   34.7920 H   0  0  0  0  0  0  0  0  0  0  0  0
  1  2  1  0
  2  3  2  0
  2  4  1  0
  4  5  2  0
  5  6  1  0
  6  7  2  0
  7  8  1  0
  8  9  2  0
  9 10  1  0
 10 11  2  0
 11 12  1  0
 12 13  2  0
 13 14  1  0
  1 15  1  0
 15 16  2  0
 16 17  1  0
 17 18  2  0
 18 19  1  0
 19 20  1  0
 20 21  1  0
 21 22  1  0
 22 23  1  0
 23 24  1  0
 24 25  2  0
 25 26  1  0
 26 27  1  0
 27 28  1  0
 13  4  1  0
 25 15  1  0
 12  7  1  0
 21 18  1  0
 28 24  1  0
  1 29  1  0
  8 30  1  0
  9 31  1  0
 10 32  1  0
 11 33  1  0
 14 34  1  0
 14 35  1  0
 17 36  1  0
 19 37  1  0
 19 38  1  0
 21 39  1  0
 22 40  1  0
 22 41  1  0
 23 42  1  0
 23 43  1  0
 26 44  1  0
 26 45  1  0
 27 46  1  0
 27 47  1  0
M  END
$$$$
confid_2
     RDKit          3D

 47 51  0  0  0  0  0  0  0  0999 V2000
   24.6900   26.1200   35.5300 N   0  0  0  0  0  0  0  0  0  0  0  0
   25.6600   25.6700   34.6600 C   0  0  0  0  0  0  0  0  0  0  0  0
   25.2400   25.0100   33.7200 O   0  0  0  0  0  0  0  0  0  0  0  0
   27.0300   26.2200   34.8800 C   0  0  0  0  0  0  0  0  0  0  0  0
   27.3500   26.7300   36.0700 N   0  0  0  0  0  0  0  0  0  0  0  0
   28.5700   27.1800   36.3300 N   0  0  0  0  0  0  0  0  0  0  0  0
   29.5300   27.1100   35.3900 C   0  0  0  0  0  0  0  0  0  0  0  0
   30.8300   27.5700   35.6500 C   0  0  0  0  0  0  0  0  0  0  0  0
   31.8500   27.5400   34.6900 C   0  0  0  0  0  0  0  0  0  0  0  0
   31.5100   27.1200   33.4000 C   0  0  0  0  0  0  0  0  0  0  0  0
   30.2200   26.6300   33.1100 C   0  0  0  0  0  0  0  0  0  0  0  0
   29.2400   26.6600   34.1000 C   0  0  0  0  0  0  0  0  0  0  0  0
   27.9300   26.2600   33.8100 C   0  0  0  0  0  0  0  0  0  0  0  0
   27.5200   25.7100   32.6100 N   0  0  0  0  0  0  0  0  0  0  0  0
   23.3190   26.3730   35.1694 C   0  0  0  0  0  0  0  0  0  0  0  0
   22.9756   26.4700   33.9176 N   0  0  0  0  0  0  0  0  0  0  0  0
   21.6586   26.7572   33.4351 C   0  0  0  0  0  0  0  0  0  0  0  0
   20.7061   25.8275   33.4082 C   0  0  0  0  0  0  0  0  0  0  0  0
   19.3925   25.6422   32.7094 C   0  0  0  0  0  0  0  0  0  0  0  0
   19.2320   24.3131   33.0845 O   0  0  0  0  0  0  0  0  0  0  0  0
   20.4152   24.4020   33.8135 C   0  0  0  0  0  0  0  0  0  0  0  0
   20.1025   24.1920   35.3075 C   0  0  0  0  0  0  0  0  0  0  0  0
   21.3255   24.3218   36.2219 C   0  0  0  0  0  0  0  0  0  0  0  0
   21.4895   25.7315   36.7103 C   0  0  0  0  0  0  0  0  0  0  0  0
   22.3449   26.6201   36.2434 C   0  0  0  0  0  0  0  0  0  0  0  0
   22.2248   27.9037   36.9896 C   0  0  0  0  0  0  0  0  0  0  0  0
   21.0864   27.6154   37.9803 C   0  0  0  0  0  0  0  0  0  0  0  0
   20.7221   26.2663   37.7269 O   0  0  0  0  0  0  0  0  0  0  0  0
   24.9466   26.2732   36.5318 H   0  0  0  0  0  0  0  0  0  0  0  0
   31.0672   27.9417   36.6393 H   0  0  0  0  0  0  0  0  0  0  0  0
   32.8482   27.8886   34.9211 H   0  0  0  0  0  0  0  0  0  0  0  0
   32.2640   27.1263   32.6235 H   0  0  0  0  0  0  0  0  0  0  0  0
   30.0101   26.3034   32.1004 H   0  0  0  0  0  0  0  0  0  0  0  0
   26.6932   26.1019   32.1061 H   0  0  0  0  0  0  0  0  0  0  0  0
   28.1317   25.0439   32.0889 H   0  0  0  0  0  0  0  0  0  0  0  0
   21.5020   27.6655   32.8691 H   0  0  0  0  0  0  0  0  0  0  0  0
   18.5945   26.2879   33.1384 H   0  0  0  0  0  0  0  0  0  0  0  0
   19.4899   25.7396   31.6058 H   0  0  0  0  0  0  0  0  0  0  0  0
   21.1784   23.6897   33.4270 H   0  0  0  0  0  0  0  0  0  0  0  0
   19.2910   24.8809   35.6347 H   0  0  0  0  0  0  0  0  0  0  0  0
   19.7039   23.1597   35.4163 H   0  0  0  0  0  0  0  0  0  0  0  0
   21.1729   23.6770   37.1139 H   0  0  0  0  0  0  0  0  0  0  0  0
   22.2431   23.9539   35.7135 H   0  0  0  0  0  0  0  0  0  0  0  0
   21.9559   28.7300   36.2971 H   0  0  0  0  0  0  0  0  0  0  0  0
   23.1725   28.1313   37.5235 H   0  0  0  0  0  0  0  0  0  0  0  0
   21.4334   27.7226   39.0302 H   0  0  0  0  0  0  0  0  0  0  0  0
   20.2173   28.2815   37.7928 H   0  0  0  0  0  0  0  0  0  0  0  0
  1  2  1  0
  2  3  2  0
  2  4  1  0
  4  5  2  0
  5  6  1  0
  6  7  2  0
  7  8  1  0
  8  9  2  0
  9 10  1  0
 10 11  2  0
 11 12  1  0
 12 13  2  0
 13 14  1  0
  1 15  1  0
 15 16  2  0
 16 17  1  0
 17 18  2  0
 18 19  1  0
 19 20  1  0
 20 21  1  0
 21 22  1  0
 22 23  1  0
 23 24  1  0
 24 25  2  0
 25 26  1  0
 26 27  1  0
 27 28  1  0
 13  4  1  0
 25 15  1  0
 12  7  1  0
 21 18  1  0
 28 24  1  0
  1 29  1  0
  8 30  1  0
  9 31  1  0
 10 32  1  0
 11 33  1  0
 14 34  1  0
 14 35  1  0
 17 36  1  0
 19 37  1  0
 19 38  1  0
 21 39  1  0
 22 40  1  0
 22 41  1  0
 23 42  1  0
 23 43  1  0
 26 44  1  0
 26 45  1  0
 27 46  1  0
 27 47  1  0
M  END
$$$$
confid_3
     RDKit          3D

 47 51  0  0  0  0  0  0  0  0999 V2000
   24.6900   26.1200   35.5300 N   0  0  0  0  0  0  0  0  0  0  0  0
   25.6600   25.6700   34.6600 C   0  0  0  0  0  0  0  0  0  0  0  0
   25.2400   25.0100   33.7200 O   0  0  0  0  0  0  0  0  0  0  0  0
   27.0300   26.2200   34.8800 C   0  0  0  0  0  0  0  0  0  0  0  0
   27.3500   26.7300   36.0700 N   0  0  0  0  0  0  0  0  0  0  0  0
   28.5700   27.1800   36.3300 N   0  0  0  0  0  0  0  0  0  0  0  0
   29.5300   27.1100   35.3900 C   0  0  0  0  0  0  0  0  0  0  0  0
   30.8300   27.5700   35.6500 C   0  0  0  0  0  0  0  0  0  0  0  0
   31.8500   27.5400   34.6900 C   0  0  0  0  0  0  0  0  0  0  0  0
   31.5100   27.1200   33.4000 C   0  0  0  0  0  0  0  0  0  0  0  0
   30.2200   26.6300   33.1100 C   0  0  0  0  0  0  0  0  0  0  0  0
   29.2400   26.6600   34.1000 C   0  0  0  0  0  0  0  0  0  0  0  0
   27.9300   26.2600   33.8100 C   0  0  0  0  0  0  0  0  0  0  0  0
   27.5200   25.7100   32.6100 N   0  0  0  0  0  0  0  0  0  0  0  0
   23.4777   25.6836   34.9401 C   0  0  0  0  0  0  0  0  0  0  0  0
   22.5639   25.3547   34.4954 N   0  0  0  0  0  0  0  0  0  0  0  0
   21.6800   24.7308   33.6666 C   0  0  0  0  0  0  0  0  0  0  0  0
   20.4420   25.1543   33.5629 C   0  0  0  0  0  0  0  0  0  0  0  0
   19.0833   24.9969   32.9388 C   0  0  0  0  0  0  0  0  0  0  0  0
   18.5648   25.6652   34.0132 O   0  0  0  0  0  0  0  0  0  0  0  0
   19.7654   26.2545   34.2499 C   0  0  0  0  0  0  0  0  0  0  0  0
   20.0301   27.5852   33.5379 C   0  0  0  0  0  0  0  0  0  0  0  0
   21.5131   27.8267   33.8066 C   0  0  0  0  0  0  0  0  0  0  0  0
   21.7617   27.6550   35.2551 C   0  0  0  0  0  0  0  0  0  0  0  0
   22.5035   26.8711   35.9206 C   0  0  0  0  0  0  0  0  0  0  0  0
   22.5372   26.9944   37.2972 C   0  0  0  0  0  0  0  0  0  0  0  0
   21.2695   27.8987   37.5147 C   0  0  0  0  0  0  0  0  0  0  0  0
   21.1011   28.4707   36.2539 O   0  0  0  0  0  0  0  0  0  0  0  0
   24.9396   26.6048   36.3724 H   0  0  0  0  0  0  0  0  0  0  0  0
   31.0061   27.9564   36.6342 H   0  0  0  0  0  0  0  0  0  0  0  0
   32.8377   27.8119   34.9125 H   0  0  0  0  0  0  0  0  0  0  0  0
   32.1776   27.1437   32.5716 H   0  0  0  0  0  0  0  0  0  0  0  0
   29.9059   26.2316   32.1808 H   0  0  0  0  0  0  0  0  0  0  0  0
   26.8968   26.2090   31.9163 H   0  0  0  0  0  0  0  0  0  0  0  0
   27.8294   24.7509   32.3534 H   0  0  0  0  0  0  0  0  0  0  0  0
   21.9009   23.8543   33.0310 H   0  0  0  0  0  0  0  0  0  0  0  0
   18.9266   25.5567   32.0120 H   0  0  0  0  0  0  0  0  0  0  0  0
   18.7808   23.9293   32.8113 H   0  0  0  0  0  0  0  0  0  0  0  0
   19.9438   26.4026   35.3164 H   0  0  0  0  0  0  0  0  0  0  0  0
   19.8991   27.5392   32.4588 H   0  0  0  0  0  0  0  0  0  0  0  0
   19.4921   28.3693   34.0808 H   0  0  0  0  0  0  0  0  0  0  0  0
   22.0775   27.1261   33.1907 H   0  0  0  0  0  0  0  0  0  0  0  0
   21.7729   28.8657   33.4618 H   0  0  0  0  0  0  0  0  0  0  0  0
   22.3432   26.1813   38.0298 H   0  0  0  0  0  0  0  0  0  0  0  0
   23.4150   27.5791   37.7289 H   0  0  0  0  0  0  0  0  0  0  0  0
   21.5000   28.5694   38.3251 H   0  0  0  0  0  0  0  0  0  0  0  0
   20.4036   27.2445   37.7410 H   0  0  0  0  0  0  0  0  0  0  0  0
  1  2  1  0
  2  3  2  0
  2  4  1  0
  4  5  2  0
  5  6  1  0
  6  7  2  0
  7  8  1  0
  8  9  2  0
  9 10  1  0
 10 11  2  0
 11 12  1  0
 12 13  2  0
 13 14  1  0
  1 15  1  0
 15 16  2  0
 16 17  1  0
 17 18  2  0
 18 19  1  0
 19 20  1  0
 20 21  1  0
 21 22  1  0
 22 23  1  0
 23 24  1  0
 24 25  2  0
 25 26  1  0
 26 27  1  0
 27 28  1  0
 13  4  1  0
 25 15  1  0
 12  7  1  0
 21 18  1  0
 28 24  1  0
  1 29  1  0
  8 30  1  0
  9 31  1  0
 10 32  1  0
 11 33  1  0
 14 34  1  0
 14 35  1  0
 17 36  1  0
 19 37  1  0
 19 38  1  0
 21 39  1  0
 22 40  1  0
 22 41  1  0
 23 42  1  0
 23 43  1  0
 26 44  1  0
 26 45  1  0
 27 46  1  0
 27 47  1  0
M  END
$$$$
