confid_0
     RDKit          3D

 42 45  0  0  0  0  0  0  0  0999 V2000
   24.5500   26.3900   36.2500 N   0  0  0  0  0  0  0  0  0  0  0  0
   25.6000   26.1300   35.4000 C   0  0  0  0  0  0  0  0  0  0  0  0
   25.4300   25.4300   34.4200 O   0  0  0  0  0  0  0  0  0  0  0  0
   26.9800   26.6300   35.7100 C   0  0  0  0  0  0  0  0  0  0  0  0
   27.3200   26.8200   36.9800 N   0  0  0  0  0  0  0  0  0  0  0  0
   28.4700   27.4000   37.3100 N   0  0  0  0  0  0  0  0  0  0  0  0
   29.4000   27.6300   36.3700 C   0  0  0  0  0  0  0  0  0  0  0  0
   30.6600   28.0500   36.8000 C   0  0  0  0  0  0  0  0  0  0  0  0
   31.5700   28.3600   35.7800 C   0  0  0  0  0  0  0  0  0  0  0  0
   31.3700   28.1000   34.4300 C   0  0  0  0  0  0  0  0  0  0  0  0
   30.1200   27.5900   34.0500 C   0  0  0  0  0  0  0  0  0  0  0  0
   29.1500   27.3400   35.0300 C   0  0  0  0  0  0  0  0  0  0  0  0
   27.8800   26.8900   34.6600 C   0  0  0  0  0  0  0  0  0  0  0  0
   27.4800   26.6100   33.3700 N   0  0  0  0  0  0  0  0  0  0  0  0
   31.0073   28.3126   38.2186 C   0  0  0  0  0  0  0  0  0  0  0  0
   32.1937   27.7697   38.7588 C   0  0  0  0  0  0  0  0  0  0  0  0
   32.5126   28.0397   40.0895 C   0  0  0  0  0  0  0  0  0  0  0  0
   33.7073   27.5691   40.8689 C   0  0  0  0  0  0  0  0  0  0  0  0
   33.5061   28.1676   42.1952 N   0  0  0  0  0  0  0  0  0  0  0  0
   34.3869   28.0172   43.3202 C   0  0  0  0  0  0  0  0  0  0  0  0
   34.1147   28.5781   44.4157 O   0  0  0  0  0  0  0  0  0  0  0  0
   35.6336   27.1970   43.2087 C   0  0  0  0  0  0  0  0  0  0  0  0
   32.2930   28.9188   42.1710 C   0  0  0  0  0  0  0  0  0  0  0  0
   31.8272   29.5609   43.1498 O   0  0  0  0  0  0  0  0  0  0  0  0
   31.6931   28.8281   40.8645 C   0  0  0  0  0  0  0  0  0  0  0  0
   30.5225   29.3925   40.3651 C   0  0  0  0  0  0  0  0  0  0  0  0
   30.1819   29.1333   39.0280 C   0  0  0  0  0  0  0  0  0  0  0  0
   24.6739   26.9932   37.0933 H   0  0  0  0  0  0  0  0  0  0  0  0
   23.6001   26.0040   36.0503 H   0  0  0  0  0  0  0  0  0  0  0  0
   32.5306   28.7758   36.0594 H   0  0  0  0  0  0  0  0  0  0  0  0
   32.1333   28.3208   33.6949 H   0  0  0  0  0  0  0  0  0  0  0  0
   29.9372   27.4181   32.9983 H   0  0  0  0  0  0  0  0  0  0  0  0
   28.1243   26.1388   32.6978 H   0  0  0  0  0  0  0  0  0  0  0  0
   26.5962   27.0149   32.9873 H   0  0  0  0  0  0  0  0  0  0  0  0
   32.8462   27.1461   38.1602 H   0  0  0  0  0  0  0  0  0  0  0  0
   33.7123   26.4607   40.9394 H   0  0  0  0  0  0  0  0  0  0  0  0
   34.6444   27.9491   40.4092 H   0  0  0  0  0  0  0  0  0  0  0  0
   36.2907   27.6213   42.4213 H   0  0  0  0  0  0  0  0  0  0  0  0
   36.1870   27.1937   44.1718 H   0  0  0  0  0  0  0  0  0  0  0  0
   35.3706   26.1516   42.9449 H   0  0  0  0  0  0  0  0  0  0  0  0
   29.8957   30.0188   40.9865 H   0  0  0  0  0  0  0  0  0  0  0  0
   29.2866   29.5844   38.6189 H   0  0  0  0  0  0  0  0  0  0  0  0
  1  2  1  0
  2  3  2  0
  2  4  1  0
  4  5  2  0
  5  6  1  0
  6  7  2  0
  7  8  1  0
  8  9  2  0
  9 10  1  0
 10 11  2  0
 11 12  1  0
 12 13  2  0
 13 14  1  0
  8 15  1  0
 15 16  2  0
 16 17  1  0
 17 18  1  0
 18 19  1  0
 19 20  1  0
 20 21  2  0
 20 22  1  0
 19 23  1  0
 23 24  2  0
 23 25  1  0
 25 26  1  0
 26 27  2  0
 13  4  1  0
 27 15  1  0
 12  7  1  0
 25 17  2  0
  1 28  1  0
  1 29  1  0
  9 30  1  0
 10 31  1  0
 11 32  1  0
 14 33  1  0
 14 34  1  0
 16 35  1  0
 18 36  1  0
 18 37  1  0
 22 38  1  0
 22 39  1  0
 22 40  1  0
 26 41  1  0
 27 42  1  0
M  END
$$$$
confid_1
     RDKit          3D

 42 45  0  0  0  0  0  0  0  0999 V2000
   24.5500   26.3900   36.2500 N   0  0  0  0  0  0  0  0  0  0  0  0
   25.6000   26.1300   35.4000 C   0  0  0  0  0  0  0  0  0  0  0  0
   25.4300   25.4300   34.4200 O   0  0  0  0  0  0  0  0  0  0  0  0
   26.9800   26.6300   35.7100 C   0  0  0  0  0  0  0  0  0  0  0  0
   27.3200   26.8200   36.9800 N   0  0  0  0  0  0  0  0  0  0  0  0
   28.4700   27.4000   37.3100 N   0  0  0  0  0  0  0  0  0  0  0  0
   29.4000   27.6300   36.3700 C   0  0  0  0  0  0  0  0  0  0  0  0
   30.6600   28.0500   36.8000 C   0  0  0  0  0  0  0  0  0  0  0  0
   31.5700   28.3600   35.7800 C   0  0  0  0  0  0  0  0  0  0  0  0
   31.3700   28.1000   34.4300 C   0  0  0  0  0  0  0  0  0  0  0  0
   30.1200   27.5900   34.0500 C   0  0  0  0  0  0  0  0  0  0  0  0
   29.1500   27.3400   35.0300 C   0  0  0  0  0  0  0  0  0  0  0  0
   27.8800   26.8900   34.6600 C   0  0  0  0  0  0  0  0  0  0  0  0
   27.4800   26.6100   33.3700 N   0  0  0  0  0  0  0  0  0  0  0  0
   31.0058   28.2811   38.2252 C   0  0  0  0  0  0  0  0  0  0  0  0
   30.7939   27.2644   39.1834 C   0  0  0  0  0  0  0  0  0  0  0  0
   31.1386   27.5096   40.5124 C   0  0  0  0  0  0  0  0  0  0  0  0
   31.0043   26.5855   41.6889 C   0  0  0  0  0  0  0  0  0  0  0  0
   31.5272   27.3806   42.8080 N   0  0  0  0  0  0  0  0  0  0  0  0
   31.6164   26.9413   44.1729 C   0  0  0  0  0  0  0  0  0  0  0  0
   32.0843   27.7102   45.0553 O   0  0  0  0  0  0  0  0  0  0  0  0
   31.1576   25.5720   44.5651 C   0  0  0  0  0  0  0  0  0  0  0  0
   31.9285   28.6549   42.3063 C   0  0  0  0  0  0  0  0  0  0  0  0
   32.4233   29.5780   43.0064 O   0  0  0  0  0  0  0  0  0  0  0  0
   31.6820   28.7167   40.8883 C   0  0  0  0  0  0  0  0  0  0  0  0
   31.9142   29.7398   39.9733 C   0  0  0  0  0  0  0  0  0  0  0  0
   31.5739   29.5149   38.6299 C   0  0  0  0  0  0  0  0  0  0  0  0
   24.6739   26.9931   37.0934 H   0  0  0  0  0  0  0  0  0  0  0  0
   23.6001   26.0040   36.0503 H   0  0  0  0  0  0  0  0  0  0  0  0
   32.5389   28.7556   36.0593 H   0  0  0  0  0  0  0  0  0  0  0  0
   32.1351   28.3162   33.6954 H   0  0  0  0  0  0  0  0  0  0  0  0
   29.9376   27.4170   32.9984 H   0  0  0  0  0  0  0  0  0  0  0  0
   28.1242   26.1386   32.6979 H   0  0  0  0  0  0  0  0  0  0  0  0
   26.5962   27.0149   32.9873 H   0  0  0  0  0  0  0  0  0  0  0  0
   30.3842   26.3030   38.8997 H   0  0  0  0  0  0  0  0  0  0  0  0
   31.6210   25.6740   41.5384 H   0  0  0  0  0  0  0  0  0  0  0  0
   29.9375   26.3281   41.8599 H   0  0  0  0  0  0  0  0  0  0  0  0
   30.0797   25.4567   44.3270 H   0  0  0  0  0  0  0  0  0  0  0  0
   31.7411   24.8090   44.0093 H   0  0  0  0  0  0  0  0  0  0  0  0
   31.3020   25.4082   45.6543 H   0  0  0  0  0  0  0  0  0  0  0  0
   32.3442   30.6822   40.2870 H   0  0  0  0  0  0  0  0  0  0  0  0
   31.7407   30.3038   37.9071 H   0  0  0  0  0  0  0  0  0  0  0  0
  1  2  1  0
  2  3  2  0
  2  4  1  0
  4  5  2  0
  5  6  1  0
  6  7  2  0
  7  8  1  0
  8  9  2  0
  9 10  1  0
 10 11  2  0
 11 12  1  0
 12 13  2  0
 13 14  1  0
  8 15  1  0
 15 16  2  0
 16 17  1  0
 17 18  1  0
 18 19  1  0
 19 20  1  0
 20 21  2  0
 20 22  1  0
 19 23  1  0
 23 24  2  0
 23 25  1  0
 25 26  1  0
 26 27  2  0
 13  4  1  0
 27 15  1  0
 12  7  1  0
 25 17  2  0
  1 28  1  0
  1 29  1  0
  9 30  1  0
 10 31  1  0
 11 32  1  0
 14 33  1  0
 14 34  1  0
 16 35  1  0
 18 36  1  0
 18 37  1  0
 22 38  1  0
 22 39  1  0
 22 40  1  0
 26 41  1  0
 27 42  1  0
M  END
$$$$
confid_2
     RDKit          3D

 42 45  0  0  0  0  0  0  0  0999 V2000
   24.5500   26.3900   36.2500 N   0  0  0  0  0  0  0  0  0  0  0  0
   25.6000   26.1300   35.4000 C   0  0  0  0  0  0  0  0  0  0  0  0
   25.4300   25.4300   34.4200 O   0  0  0  0  0  0  0  0  0  0  0  0
   26.9800   26.6300   35.7100 C   0  0  0  0  0  0  0  0  0  0  0  0
   27.3200   26.8200   36.9800 N   0  0  0  0  0  0  0  0  0  0  0  0
   28.4700   27.4000   37.3100 N   0  0  0  0  0  0  0  0  0  0  0  0
   29.4000   27.6300   36.3700 C   0  0  0  0  0  0  0  0  0  0  0  0
   30.6600   28.0500   36.8000 C   0  0  0  0  0  0  0  0  0  0  0  0
   31.5700   28.3600   35.7800 C   0  0  0  0  0  0  0  0  0  0  0  0
   31.3700   28.1000   34.4300 C   0  0  0  0  0  0  0  0  0  0  0  0
   30.1200   27.5900   34.0500 C   0  0  0  0  0  0  0  0  0  0  0  0
   29.1500   27.3400   35.0300 C   0  0  0  0  0  0  0  0  0  0  0  0
   27.8800   26.8900   34.6600 C   0  0  0  0  0  0  0  0  0  0  0  0
   27.4800   26.6100   33.3700 N   0  0  0  0  0  0  0  0  0  0  0  0
   31.0073   28.3127   38.2186 C   0  0  0  0  0  0  0  0  0  0  0  0
   32.1937   27.7699   38.7588 C   0  0  0  0  0  0  0  0  0  0  0  0
   32.5125   28.0400   40.0896 C   0  0  0  0  0  0  0  0  0  0  0  0
   33.7067   27.5699   40.8690 C   0  0  0  0  0  0  0  0  0  0  0  0
   33.5079   28.1670   42.1961 N   0  0  0  0  0  0  0  0  0  0  0  0
   34.4117   27.9950   43.3013 C   0  0  0  0  0  0  0  0  0  0  0  0
   35.4483   27.2934   43.1517 O   0  0  0  0  0  0  0  0  0  0  0  0
   34.1536   28.6299   44.6320 C   0  0  0  0  0  0  0  0  0  0  0  0
   32.2926   28.9192   42.1713 C   0  0  0  0  0  0  0  0  0  0  0  0
   31.8214   29.5632   43.1458 O   0  0  0  0  0  0  0  0  0  0  0  0
   31.6934   28.8279   40.8645 C   0  0  0  0  0  0  0  0  0  0  0  0
   30.5227   29.3922   40.3651 C   0  0  0  0  0  0  0  0  0  0  0  0
   30.1818   29.1332   39.0280 C   0  0  0  0  0  0  0  0  0  0  0  0
   24.6739   26.9932   37.0933 H   0  0  0  0  0  0  0  0  0  0  0  0
   23.6001   26.0040   36.0503 H   0  0  0  0  0  0  0  0  0  0  0  0
   32.5306   28.7758   36.0594 H   0  0  0  0  0  0  0  0  0  0  0  0
   32.1333   28.3208   33.6949 H   0  0  0  0  0  0  0  0  0  0  0  0
   29.9372   27.4181   32.9983 H   0  0  0  0  0  0  0  0  0  0  0  0
   28.1243   26.1388   32.6978 H   0  0  0  0  0  0  0  0  0  0  0  0
   26.5962   27.0149   32.9873 H   0  0  0  0  0  0  0  0  0  0  0  0
   32.8463   27.1464   38.1603 H   0  0  0  0  0  0  0  0  0  0  0  0
   33.7130   26.4613   40.9398 H   0  0  0  0  0  0  0  0  0  0  0  0
   34.6445   27.9492   40.4099 H   0  0  0  0  0  0  0  0  0  0  0  0
   33.1920   28.2599   45.0443 H   0  0  0  0  0  0  0  0  0  0  0  0
   34.1155   29.7334   44.5203 H   0  0  0  0  0  0  0  0  0  0  0  0
   34.9643   28.3765   45.3481 H   0  0  0  0  0  0  0  0  0  0  0  0
   29.8959   30.0185   40.9865 H   0  0  0  0  0  0  0  0  0  0  0  0
   29.2866   29.5842   38.6191 H   0  0  0  0  0  0  0  0  0  0  0  0
  1  2  1  0
  2  3  2  0
  2  4  1  0
  4  5  2  0
  5  6  1  0
  6  7  2  0
  7  8  1  0
  8  9  2  0
  9 10  1  0
 10 11  2  0
 11 12  1  0
 12 13  2  0
 13 14  1  0
  8 15  1  0
 15 16  2  0
 16 17  1  0
 17 18  1  0
 18 19  1  0
 19 20  1  0
 20 21  2  0
 20 22  1  0
 19 23  1  0
 23 24  2  0
 23 25  1  0
 25 26  1  0
 26 27  2  0
 13  4  1  0
 27 15  1  0
 12  7  1  0
 25 17  2  0
  1 28  1  0
  1 29  1  0
  9 30  1  0
 10 31  1  0
 11 32  1  0
 14 33  1  0
 14 34  1  0
 16 35  1  0
 18 36  1  0
 18 37  1  0
 22 38  1  0
 22 39  1  0
 22 40  1  0
 26 41  1  0
 27 42  1  0
M  END
$$$$
confid_3
     RDKit          3D

 42 45  0  0  0  0  0  0  0  0999 V2000
   24.5500   26.3900   36.2500 N   0  0  0  0  0  0  0  0  0  0  0  0
   25.6000   26.1300   35.4000 C   0  0  0  0  0  0  0  0  0  0  0  0
   25.4300   25.4300   34.4200 O   0  0  0  0  0  0  0  0  0  0  0  0
   26.9800   26.6300   35.7100 C   0  0  0  0  0  0  0  0  0  0  0  0
   27.3200   26.8200   36.9800 N   0  0  0  0  0  0  0  0  0  0  0  0
   28.4700   27.4000   37.3100 N   0  0  0  0  0  0  0  0  0  0  0  0
   29.4000   27.6300   36.3700 C   0  0  0  0  0  0  0  0  0  0  0  0
   30.6600   28.0500   36.8000 C   0  0  0  0  0  0  0  0  0  0  0  0
   31.5700   28.3600   35.7800 C   0  0  0  0  0  0  0  0  0  0  0  0
   31.3700   28.1000   34.4300 C   0  0  0  0  0  0  0  0  0  0  0  0
   30.1200   27.5900   34.0500 C   0  0  0  0  0  0  0  0  0  0  0  0
   29.1500   27.3400   35.0300 C   0  0  0  0  0  0  0  0  0  0  0  0
   27.8800   26.8900   34.6600 C   0  0  0  0  0  0  0  0  0  0  0  0
   27.4800   26.6100   33.3700 N   0  0  0  0  0  0  0  0  0  0  0  0
   31.0069   28.3137   38.2186 C   0  0  0  0  0  0  0  0  0  0  0  0
   30.1804   29.1288   39.0248 C   0  0  0  0  0  0  0  0  0  0  0  0
   30.5525   29.3626   40.3486 C   0  0  0  0  0  0  0  0  0  0  0  0
   29.8371   30.1884   41.3787 C   0  0  0  0  0  0  0  0  0  0  0  0
   30.6939   30.0743   42.5661 N   0  0  0  0  0  0  0  0  0  0  0  0
   30.4129   30.7065   43.8268 C   0  0  0  0  0  0  0  0  0  0  0  0
   29.3738   31.4094   43.9506 O   0  0  0  0  0  0  0  0  0  0  0  0
   31.3261   30.5519   45.0028 C   0  0  0  0  0  0  0  0  0  0  0  0
   31.8124   29.2484   42.2339 C   0  0  0  0  0  0  0  0  0  0  0  0
   32.7464   28.9455   43.0226 O   0  0  0  0  0  0  0  0  0  0  0  0
   31.7072   28.8200   40.8626 C   0  0  0  0  0  0  0  0  0  0  0  0
   32.5542   28.0235   40.0967 C   0  0  0  0  0  0  0  0  0  0  0  0
   32.1986   27.7738   38.7617 C   0  0  0  0  0  0  0  0  0  0  0  0
   23.6001   26.0040   36.0503 H   0  0  0  0  0  0  0  0  0  0  0  0
   24.6739   26.9932   37.0933 H   0  0  0  0  0  0  0  0  0  0  0  0
   32.5305   28.7762   36.0593 H   0  0  0  0  0  0  0  0  0  0  0  0
   32.1332   28.3209   33.6949 H   0  0  0  0  0  0  0  0  0  0  0  0
   29.9372   27.4182   32.9982 H   0  0  0  0  0  0  0  0  0  0  0  0
   28.1243   26.1388   32.6978 H   0  0  0  0  0  0  0  0  0  0  0  0
   26.5962   27.0149   32.9873 H   0  0  0  0  0  0  0  0  0  0  0  0
   29.2808   29.5829   38.6289 H   0  0  0  0  0  0  0  0  0  0  0  0
   28.8306   29.7661   41.5848 H   0  0  0  0  0  0  0  0  0  0  0  0
   29.7697   31.2473   41.0498 H   0  0  0  0  0  0  0  0  0  0  0  0
   31.4037   29.4799   45.2794 H   0  0  0  0  0  0  0  0  0  0  0  0
   32.3314   30.9498   44.7523 H   0  0  0  0  0  0  0  0  0  0  0  0
   30.9333   31.1134   45.8772 H   0  0  0  0  0  0  0  0  0  0  0  0
   33.4617   27.6091   40.5164 H   0  0  0  0  0  0  0  0  0  0  0  0
   32.8442   27.1538   38.1520 H   0  0  0  0  0  0  0  0  0  0  0  0
  1  2  1  0
  2  3  2  0
  2  4  1  0
  4  5  2  0
  5  6  1  0
  6  7  2  0
  7  8  1  0
  8  9  2  0
  9 10  1  0
 10 11  2  0
 11 12  1  0
 12 13  2  0
 13 14  1  0
  8 15  1  0
 15 16  2  0
 16 17  1  0
 17 18  1  0
 18 19  1  0
 19 20  1  0
 20 21  2  0
 20 22  1  0
 19 23  1  0
 23 24  2  0
 23 25  1  0
 25 26  1  0
 26 27  2  0
 13  4  1  0
 27 15  1  0
 12  7  1  0
 25 17  2  0
  1 28  1  0
  1 29  1  0
  9 30  1  0
 10 31  1  0
 11 32  1  0
 14 33  1  0
 14 34  1  0
 16 35  1  0
 18 36  1  0
 18 37  1  0
 22 38  1  0
 22 39  1  0
 22 40  1  0
 26 41  1  0
 27 42  1  0
M  END
$$$$
confid_4
     RDKit          3D

 42 45  0  0  0  0  0  0  0  0999 V2000
   24.5500   26.3900   36.2500 N   0  0  0  0  0  0  0  0  0  0  0  0
   25.6000   26.1300   35.4000 C   0  0  0  0  0  0  0  0  0  0  0  0
   25.4300   25.4300   34.4200 O   0  0  0  0  0  0  0  0  0  0  0  0
   26.9800   26.6300   35.7100 C   0  0  0  0  0  0  0  0  0  0  0  0
   27.3200   26.8200   36.9800 N   0  0  0  0  0  0  0  0  0  0  0  0
   28.4700   27.4000   37.3100 N   0  0  0  0  0  0  0  0  0  0  0  0
   29.4000   27.6300   36.3700 C   0  0  0  0  0  0  0  0  0  0  0  0
   30.6600   28.0500   36.8000 C   0  0  0  0  0  0  0  0  0  0  0  0
   31.5700   28.3600   35.7800 C   0  0  0  0  0  0  0  0  0  0  0  0
   31.3700   28.1000   34.4300 C   0  0  0  0  0  0  0  0  0  0  0  0
   30.1200   27.5900   34.0500 C   0  0  0  0  0  0  0  0  0  0  0  0
   29.1500   27.3400   35.0300 C   0  0  0  0  0  0  0  0  0  0  0  0
   27.8800   26.8900   34.6600 C   0  0  0  0  0  0  0  0  0  0  0  0
   27.4800   26.6100   33.3700 N   0  0  0  0  0  0  0  0  0  0  0  0
   31.0054   28.2826   38.2250 C   0  0  0  0  0  0  0  0  0  0  0  0
   31.5689   29.5147   38.6259 C   0  0  0  0  0  0  0  0  0  0  0  0
   31.8933   29.7009   39.9696 C   0  0  0  0  0  0  0  0  0  0  0  0
   32.4905   30.9174   40.6177 C   0  0  0  0  0  0  0  0  0  0  0  0
   32.6047   30.5296   42.0299 N   0  0  0  0  0  0  0  0  0  0  0  0
   33.1263   31.3571   43.0822 C   0  0  0  0  0  0  0  0  0  0  0  0
   33.1778   30.9202   44.2634 O   0  0  0  0  0  0  0  0  0  0  0  0
   33.6135   32.7421   42.7931 C   0  0  0  0  0  0  0  0  0  0  0  0
   32.1110   29.1983   42.1728 C   0  0  0  0  0  0  0  0  0  0  0  0
   32.0673   28.5622   43.2593 O   0  0  0  0  0  0  0  0  0  0  0  0
   31.6758   28.7031   40.8920 C   0  0  0  0  0  0  0  0  0  0  0  0
   31.1309   27.4727   40.5353 C   0  0  0  0  0  0  0  0  0  0  0  0
   30.7966   27.2637   39.1878 C   0  0  0  0  0  0  0  0  0  0  0  0
   24.6739   26.9932   37.0934 H   0  0  0  0  0  0  0  0  0  0  0  0
   23.6001   26.0040   36.0503 H   0  0  0  0  0  0  0  0  0  0  0  0
   32.5387   28.7561   36.0594 H   0  0  0  0  0  0  0  0  0  0  0  0
   32.1350   28.3163   33.6954 H   0  0  0  0  0  0  0  0  0  0  0  0
   29.9376   27.4171   32.9984 H   0  0  0  0  0  0  0  0  0  0  0  0
   26.5962   27.0149   32.9873 H   0  0  0  0  0  0  0  0  0  0  0  0
   28.1242   26.1386   32.6978 H   0  0  0  0  0  0  0  0  0  0  0  0
   31.7391   30.3117   37.9128 H   0  0  0  0  0  0  0  0  0  0  0  0
   33.4934   31.1311   40.1910 H   0  0  0  0  0  0  0  0  0  0  0  0
   31.8104   31.7886   40.5076 H   0  0  0  0  0  0  0  0  0  0  0  0
   32.7849   33.3496   42.3734 H   0  0  0  0  0  0  0  0  0  0  0  0
   33.9788   33.2300   43.7218 H   0  0  0  0  0  0  0  0  0  0  0  0
   34.4465   32.6999   42.0610 H   0  0  0  0  0  0  0  0  0  0  0  0
   30.9736   26.6969   41.2733 H   0  0  0  0  0  0  0  0  0  0  0  0
   30.3887   26.3054   38.8912 H   0  0  0  0  0  0  0  0  0  0  0  0
  1  2  1  0
  2  3  2  0
  2  4  1  0
  4  5  2  0
  5  6  1  0
  6  7  2  0
  7  8  1  0
  8  9  2  0
  9 10  1  0
 10 11  2  0
 11 12  1  0
 12 13  2  0
 13 14  1  0
  8 15  1  0
 15 16  2  0
 16 17  1  0
 17 18  1  0
 18 19  1  0
 19 20  1  0
 20 21  2  0
 20 22  1  0
 19 23  1  0
 23 24  2  0
 23 25  1  0
 25 26  1  0
 26 27  2  0
 13  4  1  0
 27 15  1  0
 12  7  1  0
 25 17  2  0
  1 28  1  0
  1 29  1  0
  9 30  1  0
 10 31  1  0
 11 32  1  0
 14 33  1  0
 14 34  1  0
 16 35  1  0
 18 36  1  0
 18 37  1  0
 22 38  1  0
 22 39  1  0
 22 40  1  0
 26 41  1  0
 27 42  1  0
M  END
$$$$
confid_5
     RDKit          3D

 42 45  0  0  0  0  0  0  0  0999 V2000
   24.5500   26.3900   36.2500 N   0  0  0  0  0  0  0  0  0  0  0  0
   25.6000   26.1300   35.4000 C   0  0  0  0  0  0  0  0  0  0  0  0
   25.4300   25.4300   34.4200 O   0  0  0  0  0  0  0  0  0  0  0  0
   26.9800   26.6300   35.7100 C   0  0  0  0  0  0  0  0  0  0  0  0
   27.3200   26.8200   36.9800 N   0  0  0  0  0  0  0  0  0  0  0  0
   28.4700   27.4000   37.3100 N   0  0  0  0  0  0  0  0  0  0  0  0
   29.4000   27.6300   36.3700 C   0  0  0  0  0  0  0  0  0  0  0  0
   30.6600   28.0500   36.8000 C   0  0  0  0  0  0  0  0  0  0  0  0
   31.5700   28.3600   35.7800 C   0  0  0  0  0  0  0  0  0  0  0  0
   31.3700   28.1000   34.4300 C   0  0  0  0  0  0  0  0  0  0  0  0
   30.1200   27.5900   34.0500 C   0  0  0  0  0  0  0  0  0  0  0  0
   29.1500   27.3400   35.0300 C   0  0  0  0  0  0  0  0  0  0  0  0
   27.8800   26.8900   34.6600 C   0  0  0  0  0  0  0  0  0  0  0  0
   27.4800   26.6100   33.3700 N   0  0  0  0  0  0  0  0  0  0  0  0
   31.0069   28.3137   38.2186 C   0  0  0  0  0  0  0  0  0  0  0  0
   30.1802   29.1289   39.0247 C   0  0  0  0  0  0  0  0  0  0  0  0
   30.5521   29.3628   40.3485 C   0  0  0  0  0  0  0  0  0  0  0  0
   29.8362   30.1887   41.3787 C   0  0  0  0  0  0  0  0  0  0  0  0
   30.6948   30.0730   42.5649 N   0  0  0  0  0  0  0  0  0  0  0  0
   30.4454   30.6900   43.8381 C   0  0  0  0  0  0  0  0  0  0  0  0
   31.2535   30.5228   44.7909 O   0  0  0  0  0  0  0  0  0  0  0  0
   29.2292   31.5355   44.0509 C   0  0  0  0  0  0  0  0  0  0  0  0
   31.8117   29.2486   42.2338 C   0  0  0  0  0  0  0  0  0  0  0  0
   32.7427   28.9492   43.0279 O   0  0  0  0  0  0  0  0  0  0  0  0
   31.7074   28.8197   40.8625 C   0  0  0  0  0  0  0  0  0  0  0  0
   32.5543   28.0233   40.0967 C   0  0  0  0  0  0  0  0  0  0  0  0
   32.1986   27.7738   38.7617 C   0  0  0  0  0  0  0  0  0  0  0  0
   23.6001   26.0040   36.0503 H   0  0  0  0  0  0  0  0  0  0  0  0
   24.6739   26.9932   37.0933 H   0  0  0  0  0  0  0  0  0  0  0  0
   32.5305   28.7762   36.0593 H   0  0  0  0  0  0  0  0  0  0  0  0
   32.1332   28.3209   33.6949 H   0  0  0  0  0  0  0  0  0  0  0  0
   29.9372   27.4182   32.9982 H   0  0  0  0  0  0  0  0  0  0  0  0
   28.1243   26.1388   32.6978 H   0  0  0  0  0  0  0  0  0  0  0  0
   26.5962   27.0149   32.9873 H   0  0  0  0  0  0  0  0  0  0  0  0
   29.2807   29.5830   38.6287 H   0  0  0  0  0  0  0  0  0  0  0  0
   29.7696   31.2473   41.0491 H   0  0  0  0  0  0  0  0  0  0  0  0
   28.8301   29.7653   41.5841 H   0  0  0  0  0  0  0  0  0  0  0  0
   29.2025   31.9277   45.0899 H   0  0  0  0  0  0  0  0  0  0  0  0
   29.2423   32.3929   43.3464 H   0  0  0  0  0  0  0  0  0  0  0  0
   28.3169   30.9285   43.8753 H   0  0  0  0  0  0  0  0  0  0  0  0
   33.4618   27.6089   40.5164 H   0  0  0  0  0  0  0  0  0  0  0  0
   32.8442   27.1538   38.1519 H   0  0  0  0  0  0  0  0  0  0  0  0
  1  2  1  0
  2  3  2  0
  2  4  1  0
  4  5  2  0
  5  6  1  0
  6  7  2  0
  7  8  1  0
  8  9  2  0
  9 10  1  0
 10 11  2  0
 11 12  1  0
 12 13  2  0
 13 14  1  0
  8 15  1  0
 15 16  2  0
 16 17  1  0
 17 18  1  0
 18 19  1  0
 19 20  1  0
 20 21  2  0
 20 22  1  0
 19 23  1  0
 23 24  2  0
 23 25  1  0
 25 26  1  0
 26 27  2  0
 13  4  1  0
 27 15  1  0
 12  7  1  0
 25 17  2  0
  1 28  1  0
  1 29  1  0
  9 30  1  0
 10 31  1  0
 11 32  1  0
 14 33  1  0
 14 34  1  0
 16 35  1  0
 18 36  1  0
 18 37  1  0
 22 38  1  0
 22 39  1  0
 22 40  1  0
 26 41  1  0
 27 42  1  0
M  END
$$$$
confid_6
     RDKit          3D

 42 45  0  0  0  0  0  0  0  0999 V2000
   24.5500   26.3900   36.2500 N   0  0  0  0  0  0  0  0  0  0  0  0
   25.6000   26.1300   35.4000 C   0  0  0  0  0  0  0  0  0  0  0  0
   25.4300   25.4300   34.4200 O   0  0  0  0  0  0  0  0  0  0  0  0
   26.9800   26.6300   35.7100 C   0  0  0  0  0  0  0  0  0  0  0  0
   27.3200   26.8200   36.9800 N   0  0  0  0  0  0  0  0  0  0  0  0
   28.4700   27.4000   37.3100 N   0  0  0  0  0  0  0  0  0  0  0  0
   29.4000   27.6300   36.3700 C   0  0  0  0  0  0  0  0  0  0  0  0
   30.6600   28.0500   36.8000 C   0  0  0  0  0  0  0  0  0  0  0  0
   31.5700   28.3600   35.7800 C   0  0  0  0  0  0  0  0  0  0  0  0
   31.3700   28.1000   34.4300 C   0  0  0  0  0  0  0  0  0  0  0  0
   30.1200   27.5900   34.0500 C   0  0  0  0  0  0  0  0  0  0  0  0
   29.1500   27.3400   35.0300 C   0  0  0  0  0  0  0  0  0  0  0  0
   27.8800   26.8900   34.6600 C   0  0  0  0  0  0  0  0  0  0  0  0
   27.4800   26.6100   33.3700 N   0  0  0  0  0  0  0  0  0  0  0  0
   31.0058   28.2811   38.2252 C   0  0  0  0  0  0  0  0  0  0  0  0
   30.7940   27.2646   39.1835 C   0  0  0  0  0  0  0  0  0  0  0  0
   31.1388   27.5100   40.5125 C   0  0  0  0  0  0  0  0  0  0  0  0
   31.0049   26.5864   41.6888 C   0  0  0  0  0  0  0  0  0  0  0  0
   31.5272   27.3792   42.8094 N   0  0  0  0  0  0  0  0  0  0  0  0
   31.6019   26.9068   44.1656 C   0  0  0  0  0  0  0  0  0  0  0  0
   31.2018   25.7434   44.4403 O   0  0  0  0  0  0  0  0  0  0  0  0
   32.1449   27.7638   45.2662 C   0  0  0  0  0  0  0  0  0  0  0  0
   31.9290   28.6555   42.3064 C   0  0  0  0  0  0  0  0  0  0  0  0
   32.4243   29.5825   43.0004 O   0  0  0  0  0  0  0  0  0  0  0  0
   31.6820   28.7164   40.8884 C   0  0  0  0  0  0  0  0  0  0  0  0
   31.9142   29.7396   39.9733 C   0  0  0  0  0  0  0  0  0  0  0  0
   31.5738   29.5149   38.6299 C   0  0  0  0  0  0  0  0  0  0  0  0
   23.6001   26.0040   36.0503 H   0  0  0  0  0  0  0  0  0  0  0  0
   24.6739   26.9931   37.0934 H   0  0  0  0  0  0  0  0  0  0  0  0
   32.5389   28.7556   36.0593 H   0  0  0  0  0  0  0  0  0  0  0  0
   32.1351   28.3162   33.6954 H   0  0  0  0  0  0  0  0  0  0  0  0
   29.9376   27.4170   32.9984 H   0  0  0  0  0  0  0  0  0  0  0  0
   28.1242   26.1386   32.6979 H   0  0  0  0  0  0  0  0  0  0  0  0
   26.5962   27.0149   32.9873 H   0  0  0  0  0  0  0  0  0  0  0  0
   30.3843   26.3031   38.8999 H   0  0  0  0  0  0  0  0  0  0  0  0
   29.9383   26.3279   41.8606 H   0  0  0  0  0  0  0  0  0  0  0  0
   31.6210   25.6743   41.5391 H   0  0  0  0  0  0  0  0  0  0  0  0
   31.5321   28.6842   45.3624 H   0  0  0  0  0  0  0  0  0  0  0  0
   32.1161   27.2192   46.2340 H   0  0  0  0  0  0  0  0  0  0  0  0
   33.1985   28.0344   45.0462 H   0  0  0  0  0  0  0  0  0  0  0  0
   32.3442   30.6820   40.2870 H   0  0  0  0  0  0  0  0  0  0  0  0
   31.7407   30.3039   37.9071 H   0  0  0  0  0  0  0  0  0  0  0  0
  1  2  1  0
  2  3  2  0
  2  4  1  0
  4  5  2  0
  5  6  1  0
  6  7  2  0
  7  8  1  0
  8  9  2  0
  9 10  1  0
 10 11  2  0
 11 12  1  0
 12 13  2  0
 13 14  1  0
  8 15  1  0
 15 16  2  0
 16 17  1  0
 17 18  1  0
 18 19  1  0
 19 20  1  0
 20 21  2  0
 20 22  1  0
 19 23  1  0
 23 24  2  0
 23 25  1  0
 25 26  1  0
 26 27  2  0
 13  4  1  0
 27 15  1  0
 12  7  1  0
 25 17  2  0
  1 28  1  0
  1 29  1  0
  9 30  1  0
 10 31  1  0
 11 32  1  0
 14 33  1  0
 14 34  1  0
 16 35  1  0
 18 36  1  0
 18 37  1  0
 22 38  1  0
 22 39  1  0
 22 40  1  0
 26 41  1  0
 27 42  1  0
M  END
$$$$
confid_7
     RDKit          3D

 42 45  0  0  0  0  0  0  0  0999 V2000
   24.5500   26.3900   36.2500 N   0  0  0  0  0  0  0  0  0  0  0  0
   25.6000   26.1300   35.4000 C   0  0  0  0  0  0  0  0  0  0  0  0
   25.4300   25.4300   34.4200 O   0  0  0  0  0  0  0  0  0  0  0  0
   26.9800   26.6300   35.7100 C   0  0  0  0  0  0  0  0  0  0  0  0
   27.3200   26.8200   36.9800 N   0  0  0  0  0  0  0  0  0  0  0  0
   28.4700   27.4000   37.3100 N   0  0  0  0  0  0  0  0  0  0  0  0
   29.4000   27.6300   36.3700 C   0  0  0  0  0  0  0  0  0  0  0  0
   30.6600   28.0500   36.8000 C   0  0  0  0  0  0  0  0  0  0  0  0
   31.5700   28.3600   35.7800 C   0  0  0  0  0  0  0  0  0  0  0  0
   31.3700   28.1000   34.4300 C   0  0  0  0  0  0  0  0  0  0  0  0
   30.1200   27.5900   34.0500 C   0  0  0  0  0  0  0  0  0  0  0  0
   29.1500   27.3400   35.0300 C   0  0  0  0  0  0  0  0  0  0  0  0
   27.8800   26.8900   34.6600 C   0  0  0  0  0  0  0  0  0  0  0  0
   27.4800   26.6100   33.3700 N   0  0  0  0  0  0  0  0  0  0  0  0
   31.0056   28.2822   38.2250 C   0  0  0  0  0  0  0  0  0  0  0  0
   31.5695   29.5140   38.6262 C   0  0  0  0  0  0  0  0  0  0  0  0
   31.8941   29.6998   39.9700 C   0  0  0  0  0  0  0  0  0  0  0  0
   32.4915   30.9153   40.6182 C   0  0  0  0  0  0  0  0  0  0  0  0
   32.6068   30.5300   42.0308 N   0  0  0  0  0  0  0  0  0  0  0  0
   33.1351   31.3850   43.0593 C   0  0  0  0  0  0  0  0  0  0  0  0
   33.5323   32.5433   42.7599 O   0  0  0  0  0  0  0  0  0  0  0  0
   33.2267   30.9344   44.4838 C   0  0  0  0  0  0  0  0  0  0  0  0
   32.1117   29.1966   42.1732 C   0  0  0  0  0  0  0  0  0  0  0  0
   32.0651   28.5549   43.2560 O   0  0  0  0  0  0  0  0  0  0  0  0
   31.6764   28.7025   40.8920 C   0  0  0  0  0  0  0  0  0  0  0  0
   31.1311   27.4723   40.5351 C   0  0  0  0  0  0  0  0  0  0  0  0
   30.7965   27.2633   39.1878 C   0  0  0  0  0  0  0  0  0  0  0  0
   24.6739   26.9931   37.0934 H   0  0  0  0  0  0  0  0  0  0  0  0
   23.6001   26.0039   36.0504 H   0  0  0  0  0  0  0  0  0  0  0  0
   32.5392   28.7549   36.0595 H   0  0  0  0  0  0  0  0  0  0  0  0
   32.1370   28.3109   33.6959 H   0  0  0  0  0  0  0  0  0  0  0  0
   29.9368   27.3914   33.0017 H   0  0  0  0  0  0  0  0  0  0  0  0
   27.4181   25.6173   33.0515 H   0  0  0  0  0  0  0  0  0  0  0  0
   27.5828   27.3393   32.6300 H   0  0  0  0  0  0  0  0  0  0  0  0
   31.7400   30.3111   37.9132 H   0  0  0  0  0  0  0  0  0  0  0  0
   33.4946   31.1300   40.1919 H   0  0  0  0  0  0  0  0  0  0  0  0
   31.8126   31.7877   40.5086 H   0  0  0  0  0  0  0  0  0  0  0  0
   33.6599   31.7365   45.1187 H   0  0  0  0  0  0  0  0  0  0  0  0
   33.8799   30.0398   44.5533 H   0  0  0  0  0  0  0  0  0  0  0  0
   32.2137   30.6916   44.8666 H   0  0  0  0  0  0  0  0  0  0  0  0
   30.9735   26.6964   41.2731 H   0  0  0  0  0  0  0  0  0  0  0  0
   30.3882   26.3052   38.8911 H   0  0  0  0  0  0  0  0  0  0  0  0
  1  2  1  0
  2  3  2  0
  2  4  1  0
  4  5  2  0
  5  6  1  0
  6  7  2  0
  7  8  1  0
  8  9  2  0
  9 10  1  0
 10 11  2  0
 11 12  1  0
 12 13  2  0
 13 14  1  0
  8 15  1  0
 15 16  2  0
 16 17  1  0
 17 18  1  0
 18 19  1  0
 19 20  1  0
 20 21  2  0
 20 22  1  0
 19 23  1  0
 23 24  2  0
 23 25  1  0
 25 26  1  0
 26 27  2  0
 13  4  1  0
 27 15  1  0
 12  7  1  0
 25 17  2  0
  1 28  1  0
  1 29  1  0
  9 30  1  0
 10 31  1  0
 11 32  1  0
 14 33  1  0
 14 34  1  0
 16 35  1  0
 18 36  1  0
 18 37  1  0
 22 38  1  0
 22 39  1  0
 22 40  1  0
 26 41  1  0
 27 42  1  0
M  END
$$$$
