confid_0
     RDKit          3D

 48 52  0  0  0  0  0  0  0  0999 V2000
   24.6900   26.1200   35.5300 N   0  0  0  0  0  0  0  0  0  0  0  0
   25.6600   25.6700   34.6600 C   0  0  0  0  0  0  0  0  0  0  0  0
   25.2400   25.0100   33.7200 O   0  0  0  0  0  0  0  0  0  0  0  0
   27.0300   26.2200   34.8800 C   0  0  0  0  0  0  0  0  0  0  0  0
   27.3500   26.7300   36.0700 N   0  0  0  0  0  0  0  0  0  0  0  0
   28.5700   27.1800   36.3300 N   0  0  0  0  0  0  0  0  0  0  0  0
   29.5300   27.1100   35.3900 C   0  0  0  0  0  0  0  0  0  0  0  0
   30.8300   27.5700   35.6500 C   0  0  0  0  0  0  0  0  0  0  0  0
   31.8500   27.5400   34.6900 C   0  0  0  0  0  0  0  0  0  0  0  0
   31.5100   27.1200   33.4000 C   0  0  0  0  0  0  0  0  0  0  0  0
   30.2200   26.6300   33.1100 C   0  0  0  0  0  0  0  0  0  0  0  0
   29.2400   26.6600   34.1000 C   0  0  0  0  0  0  0  0  0  0  0  0
   27.9300   26.2600   33.8100 C   0  0  0  0  0  0  0  0  0  0  0  0
   27.5200   25.7100   32.6100 N   0  0  0  0  0  0  0  0  0  0  0  0
   23.2836   26.0239   35.2624 C   0  0  0  0  0  0  0  0  0  0  0  0
   22.5825   25.3033   36.0972 N   0  0  0  0  0  0  0  0  0  0  0  0
   21.2161   24.8941   36.2826 C   0  0  0  0  0  0  0  0  0  0  0  0
   20.1417   25.3878   35.6797 C   0  0  0  0  0  0  0  0  0  0  0  0
   18.6713   25.0759   35.6895 C   0  0  0  0  0  0  0  0  0  0  0  0
   18.3354   26.0065   34.7149 O   0  0  0  0  0  0  0  0  0  0  0  0
   19.6727   26.3849   34.6674 C   0  0  0  0  0  0  0  0  0  0  0  0
   20.2898   26.1092   33.3061 C   0  0  0  0  0  0  0  0  0  0  0  0
   21.6273   26.7412   33.2889 C   0  0  0  0  0  0  0  0  0  0  0  0
   22.7745   26.7400   34.0638 C   0  0  0  0  0  0  0  0  0  0  0  0
   23.3945   27.7966   33.2439 N   0  0  0  0  0  0  0  0  0  0  0  0
   24.5954   28.6215   33.2421 C   0  0  0  0  0  0  0  0  0  0  0  0
   24.6591   29.4706   34.5044 C   0  0  0  0  0  0  0  0  0  0  0  0
   22.2330   27.7387   32.4762 C   0  0  0  0  0  0  0  0  0  0  0  0
   24.9541   26.3549   36.5135 H   0  0  0  0  0  0  0  0  0  0  0  0
   31.0672   27.9417   36.6393 H   0  0  0  0  0  0  0  0  0  0  0  0
   32.8482   27.8886   34.9211 H   0  0  0  0  0  0  0  0  0  0  0  0
   32.2640   27.1263   32.6235 H   0  0  0  0  0  0  0  0  0  0  0  0
   30.0100   26.3035   32.1003 H   0  0  0  0  0  0  0  0  0  0  0  0
   28.1321   25.0431   32.0905 H   0  0  0  0  0  0  0  0  0  0  0  0
   26.6923   26.0968   32.1042 H   0  0  0  0  0  0  0  0  0  0  0  0
   21.0403   24.1157   37.0127 H   0  0  0  0  0  0  0  0  0  0  0  0
   18.4624   24.0385   35.3464 H   0  0  0  0  0  0  0  0  0  0  0  0
   18.1970   25.3185   36.6663 H   0  0  0  0  0  0  0  0  0  0  0  0
   19.7985   27.4381   35.0122 H   0  0  0  0  0  0  0  0  0  0  0  0
   20.3804   25.0192   33.1048 H   0  0  0  0  0  0  0  0  0  0  0  0
   19.6621   26.5677   32.5125 H   0  0  0  0  0  0  0  0  0  0  0  0
   24.5777   29.2909   32.3558 H   0  0  0  0  0  0  0  0  0  0  0  0
   25.4934   27.9795   33.1692 H   0  0  0  0  0  0  0  0  0  0  0  0
   25.5667   30.1095   34.4776 H   0  0  0  0  0  0  0  0  0  0  0  0
   24.7060   28.8256   35.4054 H   0  0  0  0  0  0  0  0  0  0  0  0
   23.7620   30.1222   34.5696 H   0  0  0  0  0  0  0  0  0  0  0  0
   21.6770   28.7017   32.5106 H   0  0  0  0  0  0  0  0  0  0  0  0
   22.4420   27.3778   31.4448 H   0  0  0  0  0  0  0  0  0  0  0  0
  1  2  1  0
  2  3  2  0
  2  4  1  0
  4  5  2  0
  5  6  1  0
  6  7  2  0
  7  8  1  0
  8  9  2  0
  9 10  1  0
 10 11  2  0
 11 12  1  0
 12 13  2  0
 13 14  1  0
  1 15  1  0
 15 16  2  0
 16 17  1  0
 17 18  2  0
 18 19  1  0
 19 20  1  0
 20 21  1  0
 21 22  1  0
 22 23  1  0
 23 24  2  0
 24 25  1  0
 25 26  1  0
 26 27  1  0
 25 28  1  0
 13  4  1  0
 24 15  1  0
 12  7  1  0
 21 18  1  0
 28 23  1  0
  1 29  1  0
  8 30  1  0
  9 31  1  0
 10 32  1  0
 11 33  1  0
 14 34  1  0
 14 35  1  0
 17 36  1  0
 19 37  1  0
 19 38  1  0
 21 39  1  0
 22 40  1  0
 22 41  1  0
 26 42  1  0
 26 43  1  0
 27 44  1  0
 27 45  1  0
 27 46  1  0
 28 47  1  0
 28 48  1  0
M  END
$$$$
