confid_0
     RDKit          3D

 44 47  0  0  0  0  0  0  0  0999 V2000
   24.5700   26.8800   35.5900 N   0  0  0  0  0  0  0  0  0  0  0  0
   25.5000   26.4000   34.6900 C   0  0  0  0  0  0  0  0  0  0  0  0
   25.1700   25.5200   33.9100 O   0  0  0  0  0  0  0  0  0  0  0  0
   26.8400   27.0200   34.7400 C   0  0  0  0  0  0  0  0  0  0  0  0
   27.3800   27.2800   35.9400 N   0  0  0  0  0  0  0  0  0  0  0  0
   28.6200   27.7400   36.0300 N   0  0  0  0  0  0  0  0  0  0  0  0
   29.3800   28.0000   34.9600 C   0  0  0  0  0  0  0  0  0  0  0  0
   30.6700   28.5000   35.1300 C   0  0  0  0  0  0  0  0  0  0  0  0
   31.5400   28.6100   34.0300 C   0  0  0  0  0  0  0  0  0  0  0  0
   31.0900   28.2200   32.7700 C   0  0  0  0  0  0  0  0  0  0  0  0
   29.8000   27.7000   32.6000 C   0  0  0  0  0  0  0  0  0  0  0  0
   28.9600   27.5500   33.7100 C   0  0  0  0  0  0  0  0  0  0  0  0
   27.6600   27.0300   33.5900 C   0  0  0  0  0  0  0  0  0  0  0  0
   27.1600   26.7400   32.3400 N   0  0  0  0  0  0  0  0  0  0  0  0
   23.3269   26.2235   35.9113 C   0  0  0  0  0  0  0  0  0  0  0  0
   23.0900   24.9462   35.4985 N   0  0  0  0  0  0  0  0  0  0  0  0
   21.9359   24.2918   35.7895 C   0  0  0  0  0  0  0  0  0  0  0  0
   20.9435   24.9227   36.5394 C   0  0  0  0  0  0  0  0  0  0  0  0
   19.7543   24.2432   36.8321 O   0  0  0  0  0  0  0  0  0  0  0  0
   18.6376   24.8759   37.4644 C   0  0  0  0  0  0  0  0  0  0  0  0
   17.7099   25.4715   36.4297 C   0  0  0  0  0  0  0  0  0  0  0  0
   18.1397   25.7903   35.3310 O   0  0  0  0  0  0  0  0  0  0  0  0
   16.2663   25.7221   36.7481 C   0  0  0  0  0  0  0  0  0  0  0  0
   19.1217   25.9412   38.4638 C   0  0  0  0  0  0  0  0  0  0  0  0
   20.0861   26.9351   37.7994 C   0  0  0  0  0  0  0  0  0  0  0  0
   21.1607   26.2296   37.0091 C   0  0  0  0  0  0  0  0  0  0  0  0
   22.3553   26.8887   36.6793 C   0  0  0  0  0  0  0  0  0  0  0  0
   22.5660   28.1648   37.0942 F   0  0  0  0  0  0  0  0  0  0  0  0
   24.7763   27.7855   36.0712 H   0  0  0  0  0  0  0  0  0  0  0  0
   31.0179   28.7883   36.1144 H   0  0  0  0  0  0  0  0  0  0  0  0
   32.5424   28.9969   34.1597 H   0  0  0  0  0  0  0  0  0  0  0  0
   31.7487   28.3095   31.9157 H   0  0  0  0  0  0  0  0  0  0  0  0
   29.5077   27.3813   31.6086 H   0  0  0  0  0  0  0  0  0  0  0  0
   26.7451   25.8074   32.1267 H   0  0  0  0  0  0  0  0  0  0  0  0
   27.2453   27.4248   31.5561 H   0  0  0  0  0  0  0  0  0  0  0  0
   21.7891   23.2805   35.4340 H   0  0  0  0  0  0  0  0  0  0  0  0
   18.0783   24.0955   38.0239 H   0  0  0  0  0  0  0  0  0  0  0  0
   16.0455   26.8050   36.6435 H   0  0  0  0  0  0  0  0  0  0  0  0
   15.6257   25.1494   36.0455 H   0  0  0  0  0  0  0  0  0  0  0  0
   16.0269   25.4095   37.7864 H   0  0  0  0  0  0  0  0  0  0  0  0
   18.2567   26.4891   38.8969 H   0  0  0  0  0  0  0  0  0  0  0  0
   19.6502   25.4320   39.2995 H   0  0  0  0  0  0  0  0  0  0  0  0
   20.5458   27.5634   38.5927 H   0  0  0  0  0  0  0  0  0  0  0  0
   19.5201   27.6050   37.1170 H   0  0  0  0  0  0  0  0  0  0  0  0
  1  2  1  0
  2  3  2  0
  2  4  1  0
  4  5  2  0
  5  6  1  0
  6  7  2  0
  7  8  1  0
  8  9  2  0
  9 10  1  0
 10 11  2  0
 11 12  1  0
 12 13  2  0
 13 14  1  0
  1 15  1  0
 15 16  2  0
 16 17  1  0
 17 18  2  0
 18 19  1  0
 19 20  1  0
 20 21  1  0
 21 22  2  0
 21 23  1  0
 20 24  1  0
 24 25  1  0
 25 26  1  0
 26 27  2  0
 27 28  1  0
 13  4  1  0
 27 15  1  0
 12  7  1  0
 26 18  1  0
  1 29  1  0
  8 30  1  0
  9 31  1  0
 10 32  1  0
 11 33  1  0
 14 34  1  0
 14 35  1  0
 17 36  1  0
 20 37  1  0
 23 38  1  0
 23 39  1  0
 23 40  1  0
 24 41  1  0
 24 42  1  0
 25 43  1  0
 25 44  1  0
M  END
$$$$
confid_1
     RDKit          3D

 44 47  0  0  0  0  0  0  0  0999 V2000
   24.5700   26.8800   35.5900 N   0  0  0  0  0  0  0  0  0  0  0  0
   25.5000   26.4000   34.6900 C   0  0  0  0  0  0  0  0  0  0  0  0
   25.1700   25.5200   33.9100 O   0  0  0  0  0  0  0  0  0  0  0  0
   26.8400   27.0200   34.7400 C   0  0  0  0  0  0  0  0  0  0  0  0
   27.3800   27.2800   35.9400 N   0  0  0  0  0  0  0  0  0  0  0  0
   28.6200   27.7400   36.0300 N   0  0  0  0  0  0  0  0  0  0  0  0
   29.3800   28.0000   34.9600 C   0  0  0  0  0  0  0  0  0  0  0  0
   30.6700   28.5000   35.1300 C   0  0  0  0  0  0  0  0  0  0  0  0
   31.5400   28.6100   34.0300 C   0  0  0  0  0  0  0  0  0  0  0  0
   31.0900   28.2200   32.7700 C   0  0  0  0  0  0  0  0  0  0  0  0
   29.8000   27.7000   32.6000 C   0  0  0  0  0  0  0  0  0  0  0  0
   28.9600   27.5500   33.7100 C   0  0  0  0  0  0  0  0  0  0  0  0
   27.6600   27.0300   33.5900 C   0  0  0  0  0  0  0  0  0  0  0  0
   27.1600   26.7400   32.3400 N   0  0  0  0  0  0  0  0  0  0  0  0
   23.2982   26.2605   35.8752 C   0  0  0  0  0  0  0  0  0  0  0  0
   22.9715   25.0557   35.3256 N   0  0  0  0  0  0  0  0  0  0  0  0
   21.7905   24.4360   35.5827 C   0  0  0  0  0  0  0  0  0  0  0  0
   20.8621   25.0277   36.4392 C   0  0  0  0  0  0  0  0  0  0  0  0
   19.6458   24.3834   36.6993 O   0  0  0  0  0  0  0  0  0  0  0  0
   18.7169   24.8527   37.6816 C   0  0  0  0  0  0  0  0  0  0  0  0
   19.0087   24.2289   39.0286 C   0  0  0  0  0  0  0  0  0  0  0  0
   20.1146   23.7633   39.2644 O   0  0  0  0  0  0  0  0  0  0  0  0
   17.9648   24.2052   40.1046 C   0  0  0  0  0  0  0  0  0  0  0  0
   18.7473   26.3905   37.7542 C   0  0  0  0  0  0  0  0  0  0  0  0
   20.1756   26.9111   37.9739 C   0  0  0  0  0  0  0  0  0  0  0  0
   21.1541   26.2763   37.0163 C   0  0  0  0  0  0  0  0  0  0  0  0
   22.3884   26.8873   36.7455 C   0  0  0  0  0  0  0  0  0  0  0  0
   22.6999   28.0768   37.3238 F   0  0  0  0  0  0  0  0  0  0  0  0
   24.7999   27.7606   36.1047 H   0  0  0  0  0  0  0  0  0  0  0  0
   31.0178   28.7888   36.1143 H   0  0  0  0  0  0  0  0  0  0  0  0
   32.5416   28.9990   34.1593 H   0  0  0  0  0  0  0  0  0  0  0  0
   31.7455   28.3188   31.9142 H   0  0  0  0  0  0  0  0  0  0  0  0
   29.5013   27.4242   31.5992 H   0  0  0  0  0  0  0  0  0  0  0  0
   27.7096   26.1832   31.6493 H   0  0  0  0  0  0  0  0  0  0  0  0
   26.1711   26.9654   32.0920 H   0  0  0  0  0  0  0  0  0  0  0  0
   21.5762   23.4788   35.1243 H   0  0  0  0  0  0  0  0  0  0  0  0
   17.6996   24.5335   37.3663 H   0  0  0  0  0  0  0  0  0  0  0  0
   17.7554   23.1547   40.3969 H   0  0  0  0  0  0  0  0  0  0  0  0
   18.3325   24.7644   40.9907 H   0  0  0  0  0  0  0  0  0  0  0  0
   17.0206   24.6736   39.7540 H   0  0  0  0  0  0  0  0  0  0  0  0
   18.0852   26.7559   38.5691 H   0  0  0  0  0  0  0  0  0  0  0  0
   18.3582   26.8007   36.7960 H   0  0  0  0  0  0  0  0  0  0  0  0
   20.1724   28.0155   37.8426 H   0  0  0  0  0  0  0  0  0  0  0  0
   20.4978   26.6900   39.0146 H   0  0  0  0  0  0  0  0  0  0  0  0
  1  2  1  0
  2  3  2  0
  2  4  1  0
  4  5  2  0
  5  6  1  0
  6  7  2  0
  7  8  1  0
  8  9  2  0
  9 10  1  0
 10 11  2  0
 11 12  1  0
 12 13  2  0
 13 14  1  0
  1 15  1  0
 15 16  2  0
 16 17  1  0
 17 18  2  0
 18 19  1  0
 19 20  1  0
 20 21  1  0
 21 22  2  0
 21 23  1  0
 20 24  1  0
 24 25  1  0
 25 26  1  0
 26 27  2  0
 27 28  1  0
 13  4  1  0
 27 15  1  0
 12  7  1  0
 26 18  1  0
  1 29  1  0
  8 30  1  0
  9 31  1  0
 10 32  1  0
 11 33  1  0
 14 34  1  0
 14 35  1  0
 17 36  1  0
 20 37  1  0
 23 38  1  0
 23 39  1  0
 23 40  1  0
 24 41  1  0
 24 42  1  0
 25 43  1  0
 25 44  1  0
M  END
$$$$
confid_2
     RDKit          3D

 44 47  0  0  0  0  0  0  0  0999 V2000
   24.5700   26.8800   35.5900 N   0  0  0  0  0  0  0  0  0  0  0  0
   25.5000   26.4000   34.6900 C   0  0  0  0  0  0  0  0  0  0  0  0
   25.1700   25.5200   33.9100 O   0  0  0  0  0  0  0  0  0  0  0  0
   26.8400   27.0200   34.7400 C   0  0  0  0  0  0  0  0  0  0  0  0
   27.3800   27.2800   35.9400 N   0  0  0  0  0  0  0  0  0  0  0  0
   28.6200   27.7400   36.0300 N   0  0  0  0  0  0  0  0  0  0  0  0
   29.3800   28.0000   34.9600 C   0  0  0  0  0  0  0  0  0  0  0  0
   30.6700   28.5000   35.1300 C   0  0  0  0  0  0  0  0  0  0  0  0
   31.5400   28.6100   34.0300 C   0  0  0  0  0  0  0  0  0  0  0  0
   31.0900   28.2200   32.7700 C   0  0  0  0  0  0  0  0  0  0  0  0
   29.8000   27.7000   32.6000 C   0  0  0  0  0  0  0  0  0  0  0  0
   28.9600   27.5500   33.7100 C   0  0  0  0  0  0  0  0  0  0  0  0
   27.6600   27.0300   33.5900 C   0  0  0  0  0  0  0  0  0  0  0  0
   27.1600   26.7400   32.3400 N   0  0  0  0  0  0  0  0  0  0  0  0
   23.3257   26.2248   35.9096 C   0  0  0  0  0  0  0  0  0  0  0  0
   23.0878   24.9478   35.4959 N   0  0  0  0  0  0  0  0  0  0  0  0
   21.9327   24.2943   35.7854 C   0  0  0  0  0  0  0  0  0  0  0  0
   20.9405   24.9264   36.5342 C   0  0  0  0  0  0  0  0  0  0  0  0
   19.7517   24.2500   36.8307 O   0  0  0  0  0  0  0  0  0  0  0  0
   18.6397   24.9030   37.4455 C   0  0  0  0  0  0  0  0  0  0  0  0
   17.7442   23.8815   38.0972 C   0  0  0  0  0  0  0  0  0  0  0  0
   16.5388   23.9280   37.9047 O   0  0  0  0  0  0  0  0  0  0  0  0
   18.2974   22.8249   39.0086 C   0  0  0  0  0  0  0  0  0  0  0  0
   19.1306   25.9368   38.4713 C   0  0  0  0  0  0  0  0  0  0  0  0
   20.0830   26.9352   37.7990 C   0  0  0  0  0  0  0  0  0  0  0  0
   21.1589   26.2326   37.0056 C   0  0  0  0  0  0  0  0  0  0  0  0
   22.3543   26.8909   36.6774 C   0  0  0  0  0  0  0  0  0  0  0  0
   22.5664   28.1661   37.0943 F   0  0  0  0  0  0  0  0  0  0  0  0
   24.7768   27.7849   36.0721 H   0  0  0  0  0  0  0  0  0  0  0  0
   31.0178   28.7888   36.1143 H   0  0  0  0  0  0  0  0  0  0  0  0
   32.5416   28.9991   34.1593 H   0  0  0  0  0  0  0  0  0  0  0  0
   31.7454   28.3188   31.9142 H   0  0  0  0  0  0  0  0  0  0  0  0
   29.5013   27.4243   31.5992 H   0  0  0  0  0  0  0  0  0  0  0  0
   26.1711   26.9655   32.0920 H   0  0  0  0  0  0  0  0  0  0  0  0
   27.7097   26.1832   31.6493 H   0  0  0  0  0  0  0  0  0  0  0  0
   21.7854   23.2830   35.4302 H   0  0  0  0  0  0  0  0  0  0  0  0
   18.0679   25.4368   36.6531 H   0  0  0  0  0  0  0  0  0  0  0  0
   17.8470   22.9317   40.0176 H   0  0  0  0  0  0  0  0  0  0  0  0
   19.4004   22.9117   39.1009 H   0  0  0  0  0  0  0  0  0  0  0  0
   18.0523   21.8205   38.6045 H   0  0  0  0  0  0  0  0  0  0  0  0
   18.2650   26.4860   38.9020 H   0  0  0  0  0  0  0  0  0  0  0  0
   19.6682   25.4254   39.3002 H   0  0  0  0  0  0  0  0  0  0  0  0
   19.5058   27.5924   37.1132 H   0  0  0  0  0  0  0  0  0  0  0  0
   20.5410   27.5726   38.5862 H   0  0  0  0  0  0  0  0  0  0  0  0
  1  2  1  0
  2  3  2  0
  2  4  1  0
  4  5  2  0
  5  6  1  0
  6  7  2  0
  7  8  1  0
  8  9  2  0
  9 10  1  0
 10 11  2  0
 11 12  1  0
 12 13  2  0
 13 14  1  0
  1 15  1  0
 15 16  2  0
 16 17  1  0
 17 18  2  0
 18 19  1  0
 19 20  1  0
 20 21  1  0
 21 22  2  0
 21 23  1  0
 20 24  1  0
 24 25  1  0
 25 26  1  0
 26 27  2  0
 27 28  1  0
 13  4  1  0
 27 15  1  0
 12  7  1  0
 26 18  1  0
  1 29  1  0
  8 30  1  0
  9 31  1  0
 10 32  1  0
 11 33  1  0
 14 34  1  0
 14 35  1  0
 17 36  1  0
 20 37  1  0
 23 38  1  0
 23 39  1  0
 23 40  1  0
 24 41  1  0
 24 42  1  0
 25 43  1  0
 25 44  1  0
M  END
$$$$
confid_3
     RDKit          3D

 44 47  0  0  0  0  0  0  0  0999 V2000
   24.5700   26.8800   35.5900 N   0  0  0  0  0  0  0  0  0  0  0  0
   25.5000   26.4000   34.6900 C   0  0  0  0  0  0  0  0  0  0  0  0
   25.1700   25.5200   33.9100 O   0  0  0  0  0  0  0  0  0  0  0  0
   26.8400   27.0200   34.7400 C   0  0  0  0  0  0  0  0  0  0  0  0
   27.3800   27.2800   35.9400 N   0  0  0  0  0  0  0  0  0  0  0  0
   28.6200   27.7400   36.0300 N   0  0  0  0  0  0  0  0  0  0  0  0
   29.3800   28.0000   34.9600 C   0  0  0  0  0  0  0  0  0  0  0  0
   30.6700   28.5000   35.1300 C   0  0  0  0  0  0  0  0  0  0  0  0
   31.5400   28.6100   34.0300 C   0  0  0  0  0  0  0  0  0  0  0  0
   31.0900   28.2200   32.7700 C   0  0  0  0  0  0  0  0  0  0  0  0
   29.8000   27.7000   32.6000 C   0  0  0  0  0  0  0  0  0  0  0  0
   28.9600   27.5500   33.7100 C   0  0  0  0  0  0  0  0  0  0  0  0
   27.6600   27.0300   33.5900 C   0  0  0  0  0  0  0  0  0  0  0  0
   27.1600   26.7400   32.3400 N   0  0  0  0  0  0  0  0  0  0  0  0
   23.3272   26.2232   35.9119 C   0  0  0  0  0  0  0  0  0  0  0  0
   23.0900   24.9462   35.4978 N   0  0  0  0  0  0  0  0  0  0  0  0
   21.9426   24.2861   35.8019 C   0  0  0  0  0  0  0  0  0  0  0  0
   20.9580   24.9103   36.5673 C   0  0  0  0  0  0  0  0  0  0  0  0
   19.7806   24.2207   36.8838 O   0  0  0  0  0  0  0  0  0  0  0  0
   18.7961   24.7410   37.7830 C   0  0  0  0  0  0  0  0  0  0  0  0
   19.0654   24.3010   39.2067 C   0  0  0  0  0  0  0  0  0  0  0  0
   18.2225   24.5147   40.0653 O   0  0  0  0  0  0  0  0  0  0  0  0
   20.3405   23.6068   39.5915 C   0  0  0  0  0  0  0  0  0  0  0  0
   18.7280   26.2746   37.6686 C   0  0  0  0  0  0  0  0  0  0  0  0
   20.1141   26.9082   37.8567 C   0  0  0  0  0  0  0  0  0  0  0  0
   21.1565   26.2325   37.0002 C   0  0  0  0  0  0  0  0  0  0  0  0
   22.3589   26.8852   36.6868 C   0  0  0  0  0  0  0  0  0  0  0  0
   22.5816   28.1507   37.1270 F   0  0  0  0  0  0  0  0  0  0  0  0
   24.7763   27.7857   36.0709 H   0  0  0  0  0  0  0  0  0  0  0  0
   31.0178   28.7888   36.1143 H   0  0  0  0  0  0  0  0  0  0  0  0
   32.5416   28.9991   34.1593 H   0  0  0  0  0  0  0  0  0  0  0  0
   31.7454   28.3188   31.9142 H   0  0  0  0  0  0  0  0  0  0  0  0
   29.5013   27.4243   31.5992 H   0  0  0  0  0  0  0  0  0  0  0  0
   26.1711   26.9656   32.0920 H   0  0  0  0  0  0  0  0  0  0  0  0
   27.7096   26.1831   31.6494 H   0  0  0  0  0  0  0  0  0  0  0  0
   21.7998   23.2716   35.4539 H   0  0  0  0  0  0  0  0  0  0  0  0
   17.8109   24.3220   37.4846 H   0  0  0  0  0  0  0  0  0  0  0  0
   20.3273   23.3325   40.6680 H   0  0  0  0  0  0  0  0  0  0  0  0
   21.2044   24.2788   39.4095 H   0  0  0  0  0  0  0  0  0  0  0  0
   20.4608   22.6803   38.9923 H   0  0  0  0  0  0  0  0  0  0  0  0
   18.0185   26.6913   38.4162 H   0  0  0  0  0  0  0  0  0  0  0  0
   18.3457   26.5406   36.6586 H   0  0  0  0  0  0  0  0  0  0  0  0
   20.4191   26.8294   38.9223 H   0  0  0  0  0  0  0  0  0  0  0  0
   20.0468   27.9870   37.5975 H   0  0  0  0  0  0  0  0  0  0  0  0
  1  2  1  0
  2  3  2  0
  2  4  1  0
  4  5  2  0
  5  6  1  0
  6  7  2  0
  7  8  1  0
  8  9  2  0
  9 10  1  0
 10 11  2  0
 11 12  1  0
 12 13  2  0
 13 14  1  0
  1 15  1  0
 15 16  2  0
 16 17  1  0
 17 18  2  0
 18 19  1  0
 19 20  1  0
 20 21  1  0
 21 22  2  0
 21 23  1  0
 20 24  1  0
 24 25  1  0
 25 26  1  0
 26 27  2  0
 27 28  1  0
 13  4  1  0
 27 15  1  0
 12  7  1  0
 26 18  1  0
  1 29  1  0
  8 30  1  0
  9 31  1  0
 10 32  1  0
 11 33  1  0
 14 34  1  0
 14 35  1  0
 17 36  1  0
 20 37  1  0
 23 38  1  0
 23 39  1  0
 23 40  1  0
 24 41  1  0
 24 42  1  0
 25 43  1  0
 25 44  1  0
M  END
$$$$
confid_4
     RDKit          3D

 44 47  0  0  0  0  0  0  0  0999 V2000
   24.5700   26.8800   35.5900 N   0  0  0  0  0  0  0  0  0  0  0  0
   25.5000   26.4000   34.6900 C   0  0  0  0  0  0  0  0  0  0  0  0
   25.1700   25.5200   33.9100 O   0  0  0  0  0  0  0  0  0  0  0  0
   26.8400   27.0200   34.7400 C   0  0  0  0  0  0  0  0  0  0  0  0
   27.3800   27.2800   35.9400 N   0  0  0  0  0  0  0  0  0  0  0  0
   28.6200   27.7400   36.0300 N   0  0  0  0  0  0  0  0  0  0  0  0
   29.3800   28.0000   34.9600 C   0  0  0  0  0  0  0  0  0  0  0  0
   30.6700   28.5000   35.1300 C   0  0  0  0  0  0  0  0  0  0  0  0
   31.5400   28.6100   34.0300 C   0  0  0  0  0  0  0  0  0  0  0  0
   31.0900   28.2200   32.7700 C   0  0  0  0  0  0  0  0  0  0  0  0
   29.8000   27.7000   32.6000 C   0  0  0  0  0  0  0  0  0  0  0  0
   28.9600   27.5500   33.7100 C   0  0  0  0  0  0  0  0  0  0  0  0
   27.6600   27.0300   33.5900 C   0  0  0  0  0  0  0  0  0  0  0  0
   27.1600   26.7400   32.3400 N   0  0  0  0  0  0  0  0  0  0  0  0
   23.3268   26.2235   35.9112 C   0  0  0  0  0  0  0  0  0  0  0  0
   23.0902   24.9459   35.4985 N   0  0  0  0  0  0  0  0  0  0  0  0
   21.9422   24.2860   35.8014 C   0  0  0  0  0  0  0  0  0  0  0  0
   20.9569   24.9113   36.5650 C   0  0  0  0  0  0  0  0  0  0  0  0
   19.7753   24.2285   36.8757 O   0  0  0  0  0  0  0  0  0  0  0  0
   18.8185   24.7499   37.7995 C   0  0  0  0  0  0  0  0  0  0  0  0
   17.4797   24.1030   37.5528 C   0  0  0  0  0  0  0  0  0  0  0  0
   16.9933   24.1315   36.4321 O   0  0  0  0  0  0  0  0  0  0  0  0
   16.7261   23.4206   38.6562 C   0  0  0  0  0  0  0  0  0  0  0  0
   18.7212   26.2765   37.6513 C   0  0  0  0  0  0  0  0  0  0  0  0
   20.1044   26.9142   37.8425 C   0  0  0  0  0  0  0  0  0  0  0  0
   21.1542   26.2349   36.9955 C   0  0  0  0  0  0  0  0  0  0  0  0
   22.3569   26.8873   36.6829 C   0  0  0  0  0  0  0  0  0  0  0  0
   22.5778   28.1543   37.1196 F   0  0  0  0  0  0  0  0  0  0  0  0
   24.7761   27.7858   36.0707 H   0  0  0  0  0  0  0  0  0  0  0  0
   31.0179   28.7883   36.1144 H   0  0  0  0  0  0  0  0  0  0  0  0
   32.5424   28.9969   34.1597 H   0  0  0  0  0  0  0  0  0  0  0  0
   31.7487   28.3095   31.9157 H   0  0  0  0  0  0  0  0  0  0  0  0
   29.5077   27.3813   31.6086 H   0  0  0  0  0  0  0  0  0  0  0  0
   26.7451   25.8074   32.1267 H   0  0  0  0  0  0  0  0  0  0  0  0
   27.2453   27.4248   31.5561 H   0  0  0  0  0  0  0  0  0  0  0  0
   21.7992   23.2717   35.4532 H   0  0  0  0  0  0  0  0  0  0  0  0
   19.1683   24.5199   38.8300 H   0  0  0  0  0  0  0  0  0  0  0  0
   16.5789   22.3510   38.3983 H   0  0  0  0  0  0  0  0  0  0  0  0
   15.7343   23.9036   38.7808 H   0  0  0  0  0  0  0  0  0  0  0  0
   17.2719   23.4819   39.6206 H   0  0  0  0  0  0  0  0  0  0  0  0
   18.3390   26.5354   36.6388 H   0  0  0  0  0  0  0  0  0  0  0  0
   18.0177   26.6879   38.4078 H   0  0  0  0  0  0  0  0  0  0  0  0
   20.0370   27.9919   37.5786 H   0  0  0  0  0  0  0  0  0  0  0  0
   20.4028   26.8368   38.9104 H   0  0  0  0  0  0  0  0  0  0  0  0
  1  2  1  0
  2  3  2  0
  2  4  1  0
  4  5  2  0
  5  6  1  0
  6  7  2  0
  7  8  1  0
  8  9  2  0
  9 10  1  0
 10 11  2  0
 11 12  1  0
 12 13  2  0
 13 14  1  0
  1 15  1  0
 15 16  2  0
 16 17  1  0
 17 18  2  0
 18 19  1  0
 19 20  1  0
 20 21  1  0
 21 22  2  0
 21 23  1  0
 20 24  1  0
 24 25  1  0
 25 26  1  0
 26 27  2  0
 27 28  1  0
 13  4  1  0
 27 15  1  0
 12  7  1  0
 26 18  1  0
  1 29  1  0
  8 30  1  0
  9 31  1  0
 10 32  1  0
 11 33  1  0
 14 34  1  0
 14 35  1  0
 17 36  1  0
 20 37  1  0
 23 38  1  0
 23 39  1  0
 23 40  1  0
 24 41  1  0
 24 42  1  0
 25 43  1  0
 25 44  1  0
M  END
$$$$
confid_5
     RDKit          3D

 44 47  0  0  0  0  0  0  0  0999 V2000
   24.5700   26.8800   35.5900 N   0  0  0  0  0  0  0  0  0  0  0  0
   25.5000   26.4000   34.6900 C   0  0  0  0  0  0  0  0  0  0  0  0
   25.1700   25.5200   33.9100 O   0  0  0  0  0  0  0  0  0  0  0  0
   26.8400   27.0200   34.7400 C   0  0  0  0  0  0  0  0  0  0  0  0
   27.3800   27.2800   35.9400 N   0  0  0  0  0  0  0  0  0  0  0  0
   28.6200   27.7400   36.0300 N   0  0  0  0  0  0  0  0  0  0  0  0
   29.3800   28.0000   34.9600 C   0  0  0  0  0  0  0  0  0  0  0  0
   30.6700   28.5000   35.1300 C   0  0  0  0  0  0  0  0  0  0  0  0
   31.5400   28.6100   34.0300 C   0  0  0  0  0  0  0  0  0  0  0  0
   31.0900   28.2200   32.7700 C   0  0  0  0  0  0  0  0  0  0  0  0
   29.8000   27.7000   32.6000 C   0  0  0  0  0  0  0  0  0  0  0  0
   28.9600   27.5500   33.7100 C   0  0  0  0  0  0  0  0  0  0  0  0
   27.6600   27.0300   33.5900 C   0  0  0  0  0  0  0  0  0  0  0  0
   27.1600   26.7400   32.3400 N   0  0  0  0  0  0  0  0  0  0  0  0
   23.3263   26.2241   35.9106 C   0  0  0  0  0  0  0  0  0  0  0  0
   23.0887   24.9471   35.4967 N   0  0  0  0  0  0  0  0  0  0  0  0
   21.9342   24.2929   35.7871 C   0  0  0  0  0  0  0  0  0  0  0  0
   20.9422   24.9245   36.5367 C   0  0  0  0  0  0  0  0  0  0  0  0
   19.7534   24.2480   36.8337 O   0  0  0  0  0  0  0  0  0  0  0  0
   18.6384   24.9042   37.4392 C   0  0  0  0  0  0  0  0  0  0  0  0
   17.7469   23.8784   38.0911 C   0  0  0  0  0  0  0  0  0  0  0  0
   18.2210   23.0931   38.8985 O   0  0  0  0  0  0  0  0  0  0  0  0
   16.2835   23.7978   37.7702 C   0  0  0  0  0  0  0  0  0  0  0  0
   19.1291   25.9329   38.4701 C   0  0  0  0  0  0  0  0  0  0  0  0
   20.0854   26.9321   37.8041 C   0  0  0  0  0  0  0  0  0  0  0  0
   21.1605   26.2307   37.0084 C   0  0  0  0  0  0  0  0  0  0  0  0
   22.3553   26.8895   36.6794 C   0  0  0  0  0  0  0  0  0  0  0  0
   22.5672   28.1645   37.0969 F   0  0  0  0  0  0  0  0  0  0  0  0
   24.7766   27.7852   36.0716 H   0  0  0  0  0  0  0  0  0  0  0  0
   31.0178   28.7888   36.1143 H   0  0  0  0  0  0  0  0  0  0  0  0
   32.5416   28.9991   34.1593 H   0  0  0  0  0  0  0  0  0  0  0  0
   31.7454   28.3188   31.9142 H   0  0  0  0  0  0  0  0  0  0  0  0
   29.5013   27.4243   31.5992 H   0  0  0  0  0  0  0  0  0  0  0  0
   26.1711   26.9655   32.0920 H   0  0  0  0  0  0  0  0  0  0  0  0
   27.7097   26.1832   31.6493 H   0  0  0  0  0  0  0  0  0  0  0  0
   21.7871   23.2817   35.4315 H   0  0  0  0  0  0  0  0  0  0  0  0
   18.0788   25.4448   36.6444 H   0  0  0  0  0  0  0  0  0  0  0  0
   15.9838   24.5756   37.0373 H   0  0  0  0  0  0  0  0  0  0  0  0
   16.0518   22.7993   37.3439 H   0  0  0  0  0  0  0  0  0  0  0  0
   15.6924   23.9417   38.6988 H   0  0  0  0  0  0  0  0  0  0  0  0
   19.6638   25.4151   39.2974 H   0  0  0  0  0  0  0  0  0  0  0  0
   18.2636   26.4820   38.9011 H   0  0  0  0  0  0  0  0  0  0  0  0
   19.5110   27.5945   37.1210 H   0  0  0  0  0  0  0  0  0  0  0  0
   20.5444   27.5641   38.5950 H   0  0  0  0  0  0  0  0  0  0  0  0
  1  2  1  0
  2  3  2  0
  2  4  1  0
  4  5  2  0
  5  6  1  0
  6  7  2  0
  7  8  1  0
  8  9  2  0
  9 10  1  0
 10 11  2  0
 11 12  1  0
 12 13  2  0
 13 14  1  0
  1 15  1  0
 15 16  2  0
 16 17  1  0
 17 18  2  0
 18 19  1  0
 19 20  1  0
 20 21  1  0
 21 22  2  0
 21 23  1  0
 20 24  1  0
 24 25  1  0
 25 26  1  0
 26 27  2  0
 27 28  1  0
 13  4  1  0
 27 15  1  0
 12  7  1  0
 26 18  1  0
  1 29  1  0
  8 30  1  0
  9 31  1  0
 10 32  1  0
 11 33  1  0
 14 34  1  0
 14 35  1  0
 17 36  1  0
 20 37  1  0
 23 38  1  0
 23 39  1  0
 23 40  1  0
 24 41  1  0
 24 42  1  0
 25 43  1  0
 25 44  1  0
M  END
$$$$
confid_6
     RDKit          3D

 44 47  0  0  0  0  0  0  0  0999 V2000
   24.5700   26.8800   35.5900 N   0  0  0  0  0  0  0  0  0  0  0  0
   25.5000   26.4000   34.6900 C   0  0  0  0  0  0  0  0  0  0  0  0
   25.1700   25.5200   33.9100 O   0  0  0  0  0  0  0  0  0  0  0  0
   26.8400   27.0200   34.7400 C   0  0  0  0  0  0  0  0  0  0  0  0
   27.3800   27.2800   35.9400 N   0  0  0  0  0  0  0  0  0  0  0  0
   28.6200   27.7400   36.0300 N   0  0  0  0  0  0  0  0  0  0  0  0
   29.3800   28.0000   34.9600 C   0  0  0  0  0  0  0  0  0  0  0  0
   30.6700   28.5000   35.1300 C   0  0  0  0  0  0  0  0  0  0  0  0
   31.5400   28.6100   34.0300 C   0  0  0  0  0  0  0  0  0  0  0  0
   31.0900   28.2200   32.7700 C   0  0  0  0  0  0  0  0  0  0  0  0
   29.8000   27.7000   32.6000 C   0  0  0  0  0  0  0  0  0  0  0  0
   28.9600   27.5500   33.7100 C   0  0  0  0  0  0  0  0  0  0  0  0
   27.6600   27.0300   33.5900 C   0  0  0  0  0  0  0  0  0  0  0  0
   27.1600   26.7400   32.3400 N   0  0  0  0  0  0  0  0  0  0  0  0
   23.3261   26.2243   35.9102 C   0  0  0  0  0  0  0  0  0  0  0  0
   23.0887   24.9471   35.4967 N   0  0  0  0  0  0  0  0  0  0  0  0
   21.9400   24.2880   35.7987 C   0  0  0  0  0  0  0  0  0  0  0  0
   20.9548   24.9140   36.5618 C   0  0  0  0  0  0  0  0  0  0  0  0
   19.7725   24.2323   36.8708 O   0  0  0  0  0  0  0  0  0  0  0  0
   18.8093   24.7550   37.7892 C   0  0  0  0  0  0  0  0  0  0  0  0
   17.4603   24.1202   37.5614 C   0  0  0  0  0  0  0  0  0  0  0  0
   16.6007   24.2163   38.4246 O   0  0  0  0  0  0  0  0  0  0  0  0
   17.1513   23.3767   36.2946 C   0  0  0  0  0  0  0  0  0  0  0  0
   18.7189   26.2820   37.6457 C   0  0  0  0  0  0  0  0  0  0  0  0
   20.1034   26.9154   37.8403 C   0  0  0  0  0  0  0  0  0  0  0  0
   21.1528   26.2368   36.9930 C   0  0  0  0  0  0  0  0  0  0  0  0
   22.3563   26.8884   36.6817 C   0  0  0  0  0  0  0  0  0  0  0  0
   22.5780   28.1550   37.1194 F   0  0  0  0  0  0  0  0  0  0  0  0
   24.7765   27.7854   36.0712 H   0  0  0  0  0  0  0  0  0  0  0  0
   31.0178   28.7888   36.1143 H   0  0  0  0  0  0  0  0  0  0  0  0
   32.5416   28.9991   34.1593 H   0  0  0  0  0  0  0  0  0  0  0  0
   31.7454   28.3188   31.9142 H   0  0  0  0  0  0  0  0  0  0  0  0
   29.5013   27.4243   31.5992 H   0  0  0  0  0  0  0  0  0  0  0  0
   26.1711   26.9655   32.0920 H   0  0  0  0  0  0  0  0  0  0  0  0
   27.7097   26.1832   31.6493 H   0  0  0  0  0  0  0  0  0  0  0  0
   21.7960   23.2741   35.4497 H   0  0  0  0  0  0  0  0  0  0  0  0
   19.1455   24.5078   38.8207 H   0  0  0  0  0  0  0  0  0  0  0  0
   17.7967   22.4766   36.2215 H   0  0  0  0  0  0  0  0  0  0  0  0
   16.0879   23.0554   36.2778 H   0  0  0  0  0  0  0  0  0  0  0  0
   17.3380   24.0350   35.4204 H   0  0  0  0  0  0  0  0  0  0  0  0
   18.3372   26.5407   36.6329 H   0  0  0  0  0  0  0  0  0  0  0  0
   18.0170   26.6970   38.4017 H   0  0  0  0  0  0  0  0  0  0  0  0
   20.0389   27.9941   37.5798 H   0  0  0  0  0  0  0  0  0  0  0  0
   20.4002   26.8339   38.9084 H   0  0  0  0  0  0  0  0  0  0  0  0
  1  2  1  0
  2  3  2  0
  2  4  1  0
  4  5  2  0
  5  6  1  0
  6  7  2  0
  7  8  1  0
  8  9  2  0
  9 10  1  0
 10 11  2  0
 11 12  1  0
 12 13  2  0
 13 14  1  0
  1 15  1  0
 15 16  2  0
 16 17  1  0
 17 18  2  0
 18 19  1  0
 19 20  1  0
 20 21  1  0
 21 22  2  0
 21 23  1  0
 20 24  1  0
 24 25  1  0
 25 26  1  0
 26 27  2  0
 27 28  1  0
 13  4  1  0
 27 15  1  0
 12  7  1  0
 26 18  1  0
  1 29  1  0
  8 30  1  0
  9 31  1  0
 10 32  1  0
 11 33  1  0
 14 34  1  0
 14 35  1  0
 17 36  1  0
 20 37  1  0
 23 38  1  0
 23 39  1  0
 23 40  1  0
 24 41  1  0
 24 42  1  0
 25 43  1  0
 25 44  1  0
M  END
$$$$
confid_7
     RDKit          3D

 44 47  0  0  0  0  0  0  0  0999 V2000
   24.5700   26.8800   35.5900 N   0  0  0  0  0  0  0  0  0  0  0  0
   25.5000   26.4000   34.6900 C   0  0  0  0  0  0  0  0  0  0  0  0
   25.1700   25.5200   33.9100 O   0  0  0  0  0  0  0  0  0  0  0  0
   26.8400   27.0200   34.7400 C   0  0  0  0  0  0  0  0  0  0  0  0
   27.3800   27.2800   35.9400 N   0  0  0  0  0  0  0  0  0  0  0  0
   28.6200   27.7400   36.0300 N   0  0  0  0  0  0  0  0  0  0  0  0
   29.3800   28.0000   34.9600 C   0  0  0  0  0  0  0  0  0  0  0  0
   30.6700   28.5000   35.1300 C   0  0  0  0  0  0  0  0  0  0  0  0
   31.5400   28.6100   34.0300 C   0  0  0  0  0  0  0  0  0  0  0  0
   31.0900   28.2200   32.7700 C   0  0  0  0  0  0  0  0  0  0  0  0
   29.8000   27.7000   32.6000 C   0  0  0  0  0  0  0  0  0  0  0  0
   28.9600   27.5500   33.7100 C   0  0  0  0  0  0  0  0  0  0  0  0
   27.6600   27.0300   33.5900 C   0  0  0  0  0  0  0  0  0  0  0  0
   27.1600   26.7400   32.3400 N   0  0  0  0  0  0  0  0  0  0  0  0
   23.3268   26.2236   35.9111 C   0  0  0  0  0  0  0  0  0  0  0  0
   23.0901   24.9460   35.4987 N   0  0  0  0  0  0  0  0  0  0  0  0
   21.9358   24.2919   35.7893 C   0  0  0  0  0  0  0  0  0  0  0  0
   20.9432   24.9233   36.5382 C   0  0  0  0  0  0  0  0  0  0  0  0
   19.7517   24.2459   36.8268 O   0  0  0  0  0  0  0  0  0  0  0  0
   18.6355   24.8781   37.4616 C   0  0  0  0  0  0  0  0  0  0  0  0
   17.6863   25.4703   36.4412 C   0  0  0  0  0  0  0  0  0  0  0  0
   16.6014   25.8929   36.8123 O   0  0  0  0  0  0  0  0  0  0  0  0
   18.0418   25.5503   34.9841 C   0  0  0  0  0  0  0  0  0  0  0  0
   19.1242   25.9405   38.4627 C   0  0  0  0  0  0  0  0  0  0  0  0
   20.0827   26.9361   37.7933 C   0  0  0  0  0  0  0  0  0  0  0  0
   21.1600   26.2302   37.0072 C   0  0  0  0  0  0  0  0  0  0  0  0
   22.3547   26.8893   36.6779 C   0  0  0  0  0  0  0  0  0  0  0  0
   22.5646   28.1660   37.0915 F   0  0  0  0  0  0  0  0  0  0  0  0
   24.7762   27.7855   36.0712 H   0  0  0  0  0  0  0  0  0  0  0  0
   31.0179   28.7883   36.1144 H   0  0  0  0  0  0  0  0  0  0  0  0
   32.5424   28.9969   34.1597 H   0  0  0  0  0  0  0  0  0  0  0  0
   31.7487   28.3095   31.9157 H   0  0  0  0  0  0  0  0  0  0  0  0
   29.5077   27.3813   31.6086 H   0  0  0  0  0  0  0  0  0  0  0  0
   26.7451   25.8074   32.1267 H   0  0  0  0  0  0  0  0  0  0  0  0
   27.2453   27.4248   31.5561 H   0  0  0  0  0  0  0  0  0  0  0  0
   21.7886   23.2809   35.4332 H   0  0  0  0  0  0  0  0  0  0  0  0
   18.0783   24.0968   38.0219 H   0  0  0  0  0  0  0  0  0  0  0  0
   17.1998   25.9772   34.3985 H   0  0  0  0  0  0  0  0  0  0  0  0
   18.9306   26.2007   34.8488 H   0  0  0  0  0  0  0  0  0  0  0  0
   18.2644   24.5351   34.5944 H   0  0  0  0  0  0  0  0  0  0  0  0
   19.6596   25.4292   39.2927 H   0  0  0  0  0  0  0  0  0  0  0  0
   18.2626   26.4863   38.9053 H   0  0  0  0  0  0  0  0  0  0  0  0
   19.5130   27.5985   37.1067 H   0  0  0  0  0  0  0  0  0  0  0  0
   20.5395   27.5710   38.5831 H   0  0  0  0  0  0  0  0  0  0  0  0
  1  2  1  0
  2  3  2  0
  2  4  1  0
  4  5  2  0
  5  6  1  0
  6  7  2  0
  7  8  1  0
  8  9  2  0
  9 10  1  0
 10 11  2  0
 11 12  1  0
 12 13  2  0
 13 14  1  0
  1 15  1  0
 15 16  2  0
 16 17  1  0
 17 18  2  0
 18 19  1  0
 19 20  1  0
 20 21  1  0
 21 22  2  0
 21 23  1  0
 20 24  1  0
 24 25  1  0
 25 26  1  0
 26 27  2  0
 27 28  1  0
 13  4  1  0
 27 15  1  0
 12  7  1  0
 26 18  1  0
  1 29  1  0
  8 30  1  0
  9 31  1  0
 10 32  1  0
 11 33  1  0
 14 34  1  0
 14 35  1  0
 17 36  1  0
 20 37  1  0
 23 38  1  0
 23 39  1  0
 23 40  1  0
 24 41  1  0
 24 42  1  0
 25 43  1  0
 25 44  1  0
M  END
$$$$
confid_8
     RDKit          3D

 44 47  0  0  0  0  0  0  0  0999 V2000
   24.5700   26.8800   35.5900 N   0  0  0  0  0  0  0  0  0  0  0  0
   25.5000   26.4000   34.6900 C   0  0  0  0  0  0  0  0  0  0  0  0
   25.1700   25.5200   33.9100 O   0  0  0  0  0  0  0  0  0  0  0  0
   26.8400   27.0200   34.7400 C   0  0  0  0  0  0  0  0  0  0  0  0
   27.3800   27.2800   35.9400 N   0  0  0  0  0  0  0  0  0  0  0  0
   28.6200   27.7400   36.0300 N   0  0  0  0  0  0  0  0  0  0  0  0
   29.3800   28.0000   34.9600 C   0  0  0  0  0  0  0  0  0  0  0  0
   30.6700   28.5000   35.1300 C   0  0  0  0  0  0  0  0  0  0  0  0
   31.5400   28.6100   34.0300 C   0  0  0  0  0  0  0  0  0  0  0  0
   31.0900   28.2200   32.7700 C   0  0  0  0  0  0  0  0  0  0  0  0
   29.8000   27.7000   32.6000 C   0  0  0  0  0  0  0  0  0  0  0  0
   28.9600   27.5500   33.7100 C   0  0  0  0  0  0  0  0  0  0  0  0
   27.6600   27.0300   33.5900 C   0  0  0  0  0  0  0  0  0  0  0  0
   27.1600   26.7400   32.3400 N   0  0  0  0  0  0  0  0  0  0  0  0
   23.2321   26.3647   35.7612 C   0  0  0  0  0  0  0  0  0  0  0  0
   22.7578   25.3726   34.9549 N   0  0  0  0  0  0  0  0  0  0  0  0
   21.5050   24.8644   35.0867 C   0  0  0  0  0  0  0  0  0  0  0  0
   20.6508   25.3554   36.0736 C   0  0  0  0  0  0  0  0  0  0  0  0
   19.3595   24.8276   36.2022 O   0  0  0  0  0  0  0  0  0  0  0  0
   18.4845   25.1747   37.2794 C   0  0  0  0  0  0  0  0  0  0  0  0
   18.6743   24.2257   38.4419 C   0  0  0  0  0  0  0  0  0  0  0  0
   19.7299   23.6240   38.5770 O   0  0  0  0  0  0  0  0  0  0  0  0
   17.5921   24.0369   39.4626 C   0  0  0  0  0  0  0  0  0  0  0  0
   18.7120   26.6367   37.7036 C   0  0  0  0  0  0  0  0  0  0  0  0
   20.1935   26.9058   38.0109 C   0  0  0  0  0  0  0  0  0  0  0  0
   21.0936   26.3905   36.9149 C   0  0  0  0  0  0  0  0  0  0  0  0
   22.3985   26.8872   36.7667 C   0  0  0  0  0  0  0  0  0  0  0  0
   22.8526   27.8629   37.5958 F   0  0  0  0  0  0  0  0  0  0  0  0
   24.8472   27.6859   36.1961 H   0  0  0  0  0  0  0  0  0  0  0  0
   31.0180   28.7882   36.1144 H   0  0  0  0  0  0  0  0  0  0  0  0
   32.5425   28.9969   34.1596 H   0  0  0  0  0  0  0  0  0  0  0  0
   31.7487   28.3096   31.9157 H   0  0  0  0  0  0  0  0  0  0  0  0
   29.5075   27.3814   31.6086 H   0  0  0  0  0  0  0  0  0  0  0  0
   26.7450   25.8075   32.1267 H   0  0  0  0  0  0  0  0  0  0  0  0
   27.2455   27.4247   31.5561 H   0  0  0  0  0  0  0  0  0  0  0  0
   21.1748   24.0743   34.4248 H   0  0  0  0  0  0  0  0  0  0  0  0
   17.4389   25.0714   36.9141 H   0  0  0  0  0  0  0  0  0  0  0  0
   17.2786   22.9712   39.4805 H   0  0  0  0  0  0  0  0  0  0  0  0
   17.9738   24.3228   40.4663 H   0  0  0  0  0  0  0  0  0  0  0  0
   16.7077   24.6656   39.2252 H   0  0  0  0  0  0  0  0  0  0  0  0
   18.0925   26.8837   38.5931 H   0  0  0  0  0  0  0  0  0  0  0  0
   18.3897   27.3039   36.8735 H   0  0  0  0  0  0  0  0  0  0  0  0
   20.3340   28.0011   38.1385 H   0  0  0  0  0  0  0  0  0  0  0  0
   20.4729   26.4107   38.9660 H   0  0  0  0  0  0  0  0  0  0  0  0
  1  2  1  0
  2  3  2  0
  2  4  1  0
  4  5  2  0
  5  6  1  0
  6  7  2  0
  7  8  1  0
  8  9  2  0
  9 10  1  0
 10 11  2  0
 11 12  1  0
 12 13  2  0
 13 14  1  0
  1 15  1  0
 15 16  2  0
 16 17  1  0
 17 18  2  0
 18 19  1  0
 19 20  1  0
 20 21  1  0
 21 22  2  0
 21 23  1  0
 20 24  1  0
 24 25  1  0
 25 26  1  0
 26 27  2  0
 27 28  1  0
 13  4  1  0
 27 15  1  0
 12  7  1  0
 26 18  1  0
  1 29  1  0
  8 30  1  0
  9 31  1  0
 10 32  1  0
 11 33  1  0
 14 34  1  0
 14 35  1  0
 17 36  1  0
 20 37  1  0
 23 38  1  0
 23 39  1  0
 23 40  1  0
 24 41  1  0
 24 42  1  0
 25 43  1  0
 25 44  1  0
M  END
$$$$
