confid_0
     RDKit          3D

 37 40  0  0  0  0  0  0  0  0999 V2000
   24.6900   26.1200   35.5300 N   0  0  0  0  0  0  0  0  0  0  0  0
   25.6600   25.6700   34.6600 C   0  0  0  0  0  0  0  0  0  0  0  0
   25.2400   25.0100   33.7200 O   0  0  0  0  0  0  0  0  0  0  0  0
   27.0300   26.2200   34.8800 C   0  0  0  0  0  0  0  0  0  0  0  0
   27.3500   26.7300   36.0700 N   0  0  0  0  0  0  0  0  0  0  0  0
   28.5700   27.1800   36.3300 N   0  0  0  0  0  0  0  0  0  0  0  0
   29.5300   27.1100   35.3900 C   0  0  0  0  0  0  0  0  0  0  0  0
   30.8300   27.5700   35.6500 C   0  0  0  0  0  0  0  0  0  0  0  0
   31.8500   27.5400   34.6900 C   0  0  0  0  0  0  0  0  0  0  0  0
   31.5100   27.1200   33.4000 C   0  0  0  0  0  0  0  0  0  0  0  0
   30.2200   26.6300   33.1100 C   0  0  0  0  0  0  0  0  0  0  0  0
   29.2400   26.6600   34.1000 C   0  0  0  0  0  0  0  0  0  0  0  0
   27.9300   26.2600   33.8100 C   0  0  0  0  0  0  0  0  0  0  0  0
   27.5200   25.7100   32.6100 N   0  0  0  0  0  0  0  0  0  0  0  0
   31.1468   28.0568   36.9646 N   0  0  0  0  0  0  0  0  0  0  0  0
   31.6596   29.4269   37.1257 C   0  0  0  0  0  0  0  0  0  0  0  0
   31.0489   30.0838   38.3710 C   0  0  0  0  0  0  0  0  0  0  0  0
   31.0766   29.1305   39.5225 C   0  0  0  0  0  0  0  0  0  0  0  0
   30.8754   29.5092   41.1471 S   0  0  0  0  0  0  0  0  0  0  0  0
   30.9176   27.8899   41.6138 C   0  0  0  0  0  0  0  0  0  0  0  0
   31.0636   27.0588   40.5574 N   0  0  0  0  0  0  0  0  0  0  0  0
   31.1359   27.7508   39.3901 C   0  0  0  0  0  0  0  0  0  0  0  0
   31.3194   27.0868   38.0585 C   0  0  0  0  0  0  0  0  0  0  0  0
   30.7786   27.3330   43.2671 Cl  0  0  0  0  0  0  0  0  0  0  0  0
   23.6981   25.8078   35.4227 H   0  0  0  0  0  0  0  0  0  0  0  0
   24.8908   26.7904   36.3051 H   0  0  0  0  0  0  0  0  0  0  0  0
   32.8527   27.8801   34.9164 H   0  0  0  0  0  0  0  0  0  0  0  0
   32.2658   27.1194   32.6253 H   0  0  0  0  0  0  0  0  0  0  0  0
   30.0115   26.2781   32.1079 H   0  0  0  0  0  0  0  0  0  0  0  0
   27.3415   24.6832   32.5416 H   0  0  0  0  0  0  0  0  0  0  0  0
   27.6978   26.2229   31.7183 H   0  0  0  0  0  0  0  0  0  0  0  0
   31.4096   30.0461   36.2360 H   0  0  0  0  0  0  0  0  0  0  0  0
   32.7666   29.3933   37.2243 H   0  0  0  0  0  0  0  0  0  0  0  0
   29.9929   30.3590   38.1632 H   0  0  0  0  0  0  0  0  0  0  0  0
   31.6154   31.0040   38.6275 H   0  0  0  0  0  0  0  0  0  0  0  0
   32.3411   26.6547   38.0062 H   0  0  0  0  0  0  0  0  0  0  0  0
   30.5813   26.2617   37.9651 H   0  0  0  0  0  0  0  0  0  0  0  0
  1  2  1  0
  2  3  2  0
  2  4  1  0
  4  5  2  0
  5  6  1  0
  6  7  2  0
  7  8  1  0
  8  9  2  0
  9 10  1  0
 10 11  2  0
 11 12  1  0
 12 13  2  0
 13 14  1  0
  8 15  1  0
 15 16  1  0
 16 17  1  0
 17 18  1  0
 18 19  1  0
 19 20  1  0
 20 21  2  0
 21 22  1  0
 22 23  1  0
 20 24  1  0
 13  4  1  0
 23 15  1  0
 12  7  1  0
 22 18  2  0
  1 25  1  0
  1 26  1  0
  9 27  1  0
 10 28  1  0
 11 29  1  0
 14 30  1  0
 14 31  1  0
 16 32  1  0
 16 33  1  0
 17 34  1  0
 17 35  1  0
 23 36  1  0
 23 37  1  0
M  END
$$$$
confid_1
     RDKit          3D

 37 40  0  0  0  0  0  0  0  0999 V2000
   24.6900   26.1200   35.5300 N   0  0  0  0  0  0  0  0  0  0  0  0
   25.6600   25.6700   34.6600 C   0  0  0  0  0  0  0  0  0  0  0  0
   25.2400   25.0100   33.7200 O   0  0  0  0  0  0  0  0  0  0  0  0
   27.0300   26.2200   34.8800 C   0  0  0  0  0  0  0  0  0  0  0  0
   27.3500   26.7300   36.0700 N   0  0  0  0  0  0  0  0  0  0  0  0
   28.5700   27.1800   36.3300 N   0  0  0  0  0  0  0  0  0  0  0  0
   29.5300   27.1100   35.3900 C   0  0  0  0  0  0  0  0  0  0  0  0
   30.8300   27.5700   35.6500 C   0  0  0  0  0  0  0  0  0  0  0  0
   31.8500   27.5400   34.6900 C   0  0  0  0  0  0  0  0  0  0  0  0
   31.5100   27.1200   33.4000 C   0  0  0  0  0  0  0  0  0  0  0  0
   30.2200   26.6300   33.1100 C   0  0  0  0  0  0  0  0  0  0  0  0
   29.2400   26.6600   34.1000 C   0  0  0  0  0  0  0  0  0  0  0  0
   27.9300   26.2600   33.8100 C   0  0  0  0  0  0  0  0  0  0  0  0
   27.5200   25.7100   32.6100 N   0  0  0  0  0  0  0  0  0  0  0  0
   31.1425   28.0728   36.9611 N   0  0  0  0  0  0  0  0  0  0  0  0
   30.5833   29.3628   37.3974 C   0  0  0  0  0  0  0  0  0  0  0  0
   30.0761   29.2637   38.8425 C   0  0  0  0  0  0  0  0  0  0  0  0
   31.0800   28.5511   39.6918 C   0  0  0  0  0  0  0  0  0  0  0  0
   31.1448   28.5323   41.3707 S   0  0  0  0  0  0  0  0  0  0  0  0
   32.4277   27.4389   41.3906 C   0  0  0  0  0  0  0  0  0  0  0  0
   32.8016   27.0692   40.1450 N   0  0  0  0  0  0  0  0  0  0  0  0
   32.0392   27.6775   39.1988 C   0  0  0  0  0  0  0  0  0  0  0  0
   32.2444   27.4691   37.7280 C   0  0  0  0  0  0  0  0  0  0  0  0
   33.1902   26.8352   42.8455 Cl  0  0  0  0  0  0  0  0  0  0  0  0
   24.8908   26.7905   36.3050 H   0  0  0  0  0  0  0  0  0  0  0  0
   23.6981   25.8078   35.4227 H   0  0  0  0  0  0  0  0  0  0  0  0
   32.8490   27.8942   34.9099 H   0  0  0  0  0  0  0  0  0  0  0  0
   32.2634   27.1279   32.6230 H   0  0  0  0  0  0  0  0  0  0  0  0
   30.0100   26.3037   32.1003 H   0  0  0  0  0  0  0  0  0  0  0  0
   26.6941   26.1028   32.1054 H   0  0  0  0  0  0  0  0  0  0  0  0
   28.1317   25.0436   32.0892 H   0  0  0  0  0  0  0  0  0  0  0  0
   29.7453   29.6788   36.7382 H   0  0  0  0  0  0  0  0  0  0  0  0
   31.3754   30.1405   37.3335 H   0  0  0  0  0  0  0  0  0  0  0  0
   29.1235   28.6927   38.8624 H   0  0  0  0  0  0  0  0  0  0  0  0
   29.8921   30.2814   39.2474 H   0  0  0  0  0  0  0  0  0  0  0  0
   33.2052   27.9372   37.4266 H   0  0  0  0  0  0  0  0  0  0  0  0
   32.2952   26.3775   37.5244 H   0  0  0  0  0  0  0  0  0  0  0  0
  1  2  1  0
  2  3  2  0
  2  4  1  0
  4  5  2  0
  5  6  1  0
  6  7  2  0
  7  8  1  0
  8  9  2  0
  9 10  1  0
 10 11  2  0
 11 12  1  0
 12 13  2  0
 13 14  1  0
  8 15  1  0
 15 16  1  0
 16 17  1  0
 17 18  1  0
 18 19  1  0
 19 20  1  0
 20 21  2  0
 21 22  1  0
 22 23  1  0
 20 24  1  0
 13  4  1  0
 23 15  1  0
 12  7  1  0
 22 18  2  0
  1 25  1  0
  1 26  1  0
  9 27  1  0
 10 28  1  0
 11 29  1  0
 14 30  1  0
 14 31  1  0
 16 32  1  0
 16 33  1  0
 17 34  1  0
 17 35  1  0
 23 36  1  0
 23 37  1  0
M  END
$$$$
confid_2
     RDKit          3D

 37 40  0  0  0  0  0  0  0  0999 V2000
   24.6900   26.1200   35.5300 N   0  0  0  0  0  0  0  0  0  0  0  0
   25.6600   25.6700   34.6600 C   0  0  0  0  0  0  0  0  0  0  0  0
   25.2400   25.0100   33.7200 O   0  0  0  0  0  0  0  0  0  0  0  0
   27.0300   26.2200   34.8800 C   0  0  0  0  0  0  0  0  0  0  0  0
   27.3500   26.7300   36.0700 N   0  0  0  0  0  0  0  0  0  0  0  0
   28.5700   27.1800   36.3300 N   0  0  0  0  0  0  0  0  0  0  0  0
   29.5300   27.1100   35.3900 C   0  0  0  0  0  0  0  0  0  0  0  0
   30.8300   27.5700   35.6500 C   0  0  0  0  0  0  0  0  0  0  0  0
   31.8500   27.5400   34.6900 C   0  0  0  0  0  0  0  0  0  0  0  0
   31.5100   27.1200   33.4000 C   0  0  0  0  0  0  0  0  0  0  0  0
   30.2200   26.6300   33.1100 C   0  0  0  0  0  0  0  0  0  0  0  0
   29.2400   26.6600   34.1000 C   0  0  0  0  0  0  0  0  0  0  0  0
   27.9300   26.2600   33.8100 C   0  0  0  0  0  0  0  0  0  0  0  0
   27.5200   25.7100   32.6100 N   0  0  0  0  0  0  0  0  0  0  0  0
   31.1473   28.0594   36.9653 N   0  0  0  0  0  0  0  0  0  0  0  0
   31.1798   27.1255   38.1031 C   0  0  0  0  0  0  0  0  0  0  0  0
   30.4787   27.7428   39.3208 C   0  0  0  0  0  0  0  0  0  0  0  0
   30.9125   29.1630   39.4984 C   0  0  0  0  0  0  0  0  0  0  0  0
   30.7158   30.1106   40.8720 S   0  0  0  0  0  0  0  0  0  0  0  0
   31.3430   31.4808   40.1163 C   0  0  0  0  0  0  0  0  0  0  0  0
   31.6853   31.2420   38.8303 N   0  0  0  0  0  0  0  0  0  0  0  0
   31.4301   29.9535   38.4818 C   0  0  0  0  0  0  0  0  0  0  0  0
   31.7307   29.4020   37.1201 C   0  0  0  0  0  0  0  0  0  0  0  0
   31.5260   33.0402   40.8894 Cl  0  0  0  0  0  0  0  0  0  0  0  0
   23.6981   25.8079   35.4227 H   0  0  0  0  0  0  0  0  0  0  0  0
   24.8908   26.7904   36.3051 H   0  0  0  0  0  0  0  0  0  0  0  0
   32.8535   27.8784   34.9143 H   0  0  0  0  0  0  0  0  0  0  0  0
   32.2645   27.1242   32.6240 H   0  0  0  0  0  0  0  0  0  0  0  0
   30.0102   26.3029   32.1005 H   0  0  0  0  0  0  0  0  0  0  0  0
   26.6941   26.1028   32.1054 H   0  0  0  0  0  0  0  0  0  0  0  0
   28.1316   25.0434   32.0893 H   0  0  0  0  0  0  0  0  0  0  0  0
   32.2389   26.9021   38.3575 H   0  0  0  0  0  0  0  0  0  0  0  0
   30.6843   26.1638   37.8462 H   0  0  0  0  0  0  0  0  0  0  0  0
   30.7212   27.1562   40.2322 H   0  0  0  0  0  0  0  0  0  0  0  0
   29.3791   27.7233   39.1645 H   0  0  0  0  0  0  0  0  0  0  0  0
   31.3103   30.0894   36.3543 H   0  0  0  0  0  0  0  0  0  0  0  0
   32.8318   29.3448   36.9877 H   0  0  0  0  0  0  0  0  0  0  0  0
  1  2  1  0
  2  3  2  0
  2  4  1  0
  4  5  2  0
  5  6  1  0
  6  7  2  0
  7  8  1  0
  8  9  2  0
  9 10  1  0
 10 11  2  0
 11 12  1  0
 12 13  2  0
 13 14  1  0
  8 15  1  0
 15 16  1  0
 16 17  1  0
 17 18  1  0
 18 19  1  0
 19 20  1  0
 20 21  2  0
 21 22  1  0
 22 23  1  0
 20 24  1  0
 13  4  1  0
 23 15  1  0
 12  7  1  0
 22 18  2  0
  1 25  1  0
  1 26  1  0
  9 27  1  0
 10 28  1  0
 11 29  1  0
 14 30  1  0
 14 31  1  0
 16 32  1  0
 16 33  1  0
 17 34  1  0
 17 35  1  0
 23 36  1  0
 23 37  1  0
M  END
$$$$
confid_3
     RDKit          3D

 37 40  0  0  0  0  0  0  0  0999 V2000
   24.6900   26.1200   35.5300 N   0  0  0  0  0  0  0  0  0  0  0  0
   25.6600   25.6700   34.6600 C   0  0  0  0  0  0  0  0  0  0  0  0
   25.2400   25.0100   33.7200 O   0  0  0  0  0  0  0  0  0  0  0  0
   27.0300   26.2200   34.8800 C   0  0  0  0  0  0  0  0  0  0  0  0
   27.3500   26.7300   36.0700 N   0  0  0  0  0  0  0  0  0  0  0  0
   28.5700   27.1800   36.3300 N   0  0  0  0  0  0  0  0  0  0  0  0
   29.5300   27.1100   35.3900 C   0  0  0  0  0  0  0  0  0  0  0  0
   30.8300   27.5700   35.6500 C   0  0  0  0  0  0  0  0  0  0  0  0
   31.8500   27.5400   34.6900 C   0  0  0  0  0  0  0  0  0  0  0  0
   31.5100   27.1200   33.4000 C   0  0  0  0  0  0  0  0  0  0  0  0
   30.2200   26.6300   33.1100 C   0  0  0  0  0  0  0  0  0  0  0  0
   29.2400   26.6600   34.1000 C   0  0  0  0  0  0  0  0  0  0  0  0
   27.9300   26.2600   33.8100 C   0  0  0  0  0  0  0  0  0  0  0  0
   27.5200   25.7100   32.6100 N   0  0  0  0  0  0  0  0  0  0  0  0
   31.1620   28.0610   36.9595 N   0  0  0  0  0  0  0  0  0  0  0  0
   31.0547   27.1734   38.1294 C   0  0  0  0  0  0  0  0  0  0  0  0
   32.2843   27.3292   39.0330 C   0  0  0  0  0  0  0  0  0  0  0  0
   32.5940   28.7783   39.2281 C   0  0  0  0  0  0  0  0  0  0  0  0
   33.5604   29.4487   40.4281 S   0  0  0  0  0  0  0  0  0  0  0  0
   33.4249   31.0003   39.7835 C   0  0  0  0  0  0  0  0  0  0  0  0
   32.6732   31.0217   38.6599 N   0  0  0  0  0  0  0  0  0  0  0  0
   32.2221   29.7796   38.3428 C   0  0  0  0  0  0  0  0  0  0  0  0
   31.3534   29.5079   37.1506 C   0  0  0  0  0  0  0  0  0  0  0  0
   34.1742   32.4253   40.4697 Cl  0  0  0  0  0  0  0  0  0  0  0  0
   24.8908   26.7905   36.3050 H   0  0  0  0  0  0  0  0  0  0  0  0
   23.6981   25.8078   35.4227 H   0  0  0  0  0  0  0  0  0  0  0  0
   32.8517   27.8830   34.9171 H   0  0  0  0  0  0  0  0  0  0  0  0
   32.2643   27.1252   32.6238 H   0  0  0  0  0  0  0  0  0  0  0  0
   30.0101   26.3031   32.1004 H   0  0  0  0  0  0  0  0  0  0  0  0
   28.1316   25.0435   32.0893 H   0  0  0  0  0  0  0  0  0  0  0  0
   26.6941   26.1028   32.1054 H   0  0  0  0  0  0  0  0  0  0  0  0
   30.1378   27.4333   38.7020 H   0  0  0  0  0  0  0  0  0  0  0  0
   30.9751   26.1107   37.8106 H   0  0  0  0  0  0  0  0  0  0  0  0
   32.0936   26.8467   40.0150 H   0  0  0  0  0  0  0  0  0  0  0  0
   33.1593   26.8387   38.5555 H   0  0  0  0  0  0  0  0  0  0  0  0
   31.8337   29.9541   36.2532 H   0  0  0  0  0  0  0  0  0  0  0  0
   30.3648   29.9907   37.3012 H   0  0  0  0  0  0  0  0  0  0  0  0
  1  2  1  0
  2  3  2  0
  2  4  1  0
  4  5  2  0
  5  6  1  0
  6  7  2  0
  7  8  1  0
  8  9  2  0
  9 10  1  0
 10 11  2  0
 11 12  1  0
 12 13  2  0
 13 14  1  0
  8 15  1  0
 15 16  1  0
 16 17  1  0
 17 18  1  0
 18 19  1  0
 19 20  1  0
 20 21  2  0
 21 22  1  0
 22 23  1  0
 20 24  1  0
 13  4  1  0
 23 15  1  0
 12  7  1  0
 22 18  2  0
  1 25  1  0
  1 26  1  0
  9 27  1  0
 10 28  1  0
 11 29  1  0
 14 30  1  0
 14 31  1  0
 16 32  1  0
 16 33  1  0
 17 34  1  0
 17 35  1  0
 23 36  1  0
 23 37  1  0
M  END
$$$$
confid_4
     RDKit          3D

 37 40  0  0  0  0  0  0  0  0999 V2000
   24.6900   26.1200   35.5300 N   0  0  0  0  0  0  0  0  0  0  0  0
   25.6600   25.6700   34.6600 C   0  0  0  0  0  0  0  0  0  0  0  0
   25.2400   25.0100   33.7200 O   0  0  0  0  0  0  0  0  0  0  0  0
   27.0300   26.2200   34.8800 C   0  0  0  0  0  0  0  0  0  0  0  0
   27.3500   26.7300   36.0700 N   0  0  0  0  0  0  0  0  0  0  0  0
   28.5700   27.1800   36.3300 N   0  0  0  0  0  0  0  0  0  0  0  0
   29.5300   27.1100   35.3900 C   0  0  0  0  0  0  0  0  0  0  0  0
   30.8300   27.5700   35.6500 C   0  0  0  0  0  0  0  0  0  0  0  0
   31.8500   27.5400   34.6900 C   0  0  0  0  0  0  0  0  0  0  0  0
   31.5100   27.1200   33.4000 C   0  0  0  0  0  0  0  0  0  0  0  0
   30.2200   26.6300   33.1100 C   0  0  0  0  0  0  0  0  0  0  0  0
   29.2400   26.6600   34.1000 C   0  0  0  0  0  0  0  0  0  0  0  0
   27.9300   26.2600   33.8100 C   0  0  0  0  0  0  0  0  0  0  0  0
   27.5200   25.7100   32.6100 N   0  0  0  0  0  0  0  0  0  0  0  0
   31.1629   28.0545   36.9646 N   0  0  0  0  0  0  0  0  0  0  0  0
   31.6597   29.4278   37.1458 C   0  0  0  0  0  0  0  0  0  0  0  0
   33.0347   29.4081   37.8279 C   0  0  0  0  0  0  0  0  0  0  0  0
   33.0252   28.4465   38.9750 C   0  0  0  0  0  0  0  0  0  0  0  0
   34.1509   28.3540   40.2189 S   0  0  0  0  0  0  0  0  0  0  0  0
   33.4229   26.9882   40.8871 C   0  0  0  0  0  0  0  0  0  0  0  0
   32.3466   26.5843   40.1753 N   0  0  0  0  0  0  0  0  0  0  0  0
   32.1351   27.3880   39.1002 C   0  0  0  0  0  0  0  0  0  0  0  0
   30.9954   27.1907   38.1452 C   0  0  0  0  0  0  0  0  0  0  0  0
   33.9880   26.1712   42.3279 Cl  0  0  0  0  0  0  0  0  0  0  0  0
   23.6981   25.8078   35.4227 H   0  0  0  0  0  0  0  0  0  0  0  0
   24.8908   26.7905   36.3051 H   0  0  0  0  0  0  0  0  0  0  0  0
   32.8534   27.8784   34.9157 H   0  0  0  0  0  0  0  0  0  0  0  0
   32.2645   27.1242   32.6241 H   0  0  0  0  0  0  0  0  0  0  0  0
   30.0102   26.3029   32.1005 H   0  0  0  0  0  0  0  0  0  0  0  0
   28.1316   25.0434   32.0893 H   0  0  0  0  0  0  0  0  0  0  0  0
   26.6941   26.1028   32.1054 H   0  0  0  0  0  0  0  0  0  0  0  0
   31.7367   29.9588   36.1718 H   0  0  0  0  0  0  0  0  0  0  0  0
   30.9407   29.9907   37.7801 H   0  0  0  0  0  0  0  0  0  0  0  0
   33.2902   30.4266   38.1898 H   0  0  0  0  0  0  0  0  0  0  0  0
   33.8060   29.0836   37.0974 H   0  0  0  0  0  0  0  0  0  0  0  0
   30.0459   27.4489   38.6595 H   0  0  0  0  0  0  0  0  0  0  0  0
   30.9619   26.1218   37.8413 H   0  0  0  0  0  0  0  0  0  0  0  0
  1  2  1  0
  2  3  2  0
  2  4  1  0
  4  5  2  0
  5  6  1  0
  6  7  2  0
  7  8  1  0
  8  9  2  0
  9 10  1  0
 10 11  2  0
 11 12  1  0
 12 13  2  0
 13 14  1  0
  8 15  1  0
 15 16  1  0
 16 17  1  0
 17 18  1  0
 18 19  1  0
 19 20  1  0
 20 21  2  0
 21 22  1  0
 22 23  1  0
 20 24  1  0
 13  4  1  0
 23 15  1  0
 12  7  1  0
 22 18  2  0
  1 25  1  0
  1 26  1  0
  9 27  1  0
 10 28  1  0
 11 29  1  0
 14 30  1  0
 14 31  1  0
 16 32  1  0
 16 33  1  0
 17 34  1  0
 17 35  1  0
 23 36  1  0
 23 37  1  0
M  END
$$$$
confid_5
     RDKit          3D

 37 40  0  0  0  0  0  0  0  0999 V2000
   24.6900   26.1200   35.5300 N   0  0  0  0  0  0  0  0  0  0  0  0
   25.6600   25.6700   34.6600 C   0  0  0  0  0  0  0  0  0  0  0  0
   25.2400   25.0100   33.7200 O   0  0  0  0  0  0  0  0  0  0  0  0
   27.0300   26.2200   34.8800 C   0  0  0  0  0  0  0  0  0  0  0  0
   27.3500   26.7300   36.0700 N   0  0  0  0  0  0  0  0  0  0  0  0
   28.5700   27.1800   36.3300 N   0  0  0  0  0  0  0  0  0  0  0  0
   29.5300   27.1100   35.3900 C   0  0  0  0  0  0  0  0  0  0  0  0
   30.8300   27.5700   35.6500 C   0  0  0  0  0  0  0  0  0  0  0  0
   31.8500   27.5400   34.6900 C   0  0  0  0  0  0  0  0  0  0  0  0
   31.5100   27.1200   33.4000 C   0  0  0  0  0  0  0  0  0  0  0  0
   30.2200   26.6300   33.1100 C   0  0  0  0  0  0  0  0  0  0  0  0
   29.2400   26.6600   34.1000 C   0  0  0  0  0  0  0  0  0  0  0  0
   27.9300   26.2600   33.8100 C   0  0  0  0  0  0  0  0  0  0  0  0
   27.5200   25.7100   32.6100 N   0  0  0  0  0  0  0  0  0  0  0  0
   31.1415   28.0725   36.9595 N   0  0  0  0  0  0  0  0  0  0  0  0
   32.1876   27.4146   37.7587 C   0  0  0  0  0  0  0  0  0  0  0  0
   31.7689   27.3433   39.2334 C   0  0  0  0  0  0  0  0  0  0  0  0
   31.2009   28.6550   39.6718 C   0  0  0  0  0  0  0  0  0  0  0  0
   30.9647   29.1707   41.2534 S   0  0  0  0  0  0  0  0  0  0  0  0
   30.2061   30.5938   40.7624 C   0  0  0  0  0  0  0  0  0  0  0  0
   30.1093   30.6815   39.4167 N   0  0  0  0  0  0  0  0  0  0  0  0
   30.6500   29.5923   38.8101 C   0  0  0  0  0  0  0  0  0  0  0  0
   30.7002   29.4295   37.3206 C   0  0  0  0  0  0  0  0  0  0  0  0
   29.5989   31.8188   41.8549 Cl  0  0  0  0  0  0  0  0  0  0  0  0
   23.6981   25.8078   35.4227 H   0  0  0  0  0  0  0  0  0  0  0  0
   24.8908   26.7905   36.3050 H   0  0  0  0  0  0  0  0  0  0  0  0
   32.8492   27.8924   34.9131 H   0  0  0  0  0  0  0  0  0  0  0  0
   32.2636   27.1274   32.6232 H   0  0  0  0  0  0  0  0  0  0  0  0
   30.0100   26.3036   32.1003 H   0  0  0  0  0  0  0  0  0  0  0  0
   26.6941   26.1028   32.1054 H   0  0  0  0  0  0  0  0  0  0  0  0
   28.1317   25.0436   32.0892 H   0  0  0  0  0  0  0  0  0  0  0  0
   32.3720   26.3818   37.3889 H   0  0  0  0  0  0  0  0  0  0  0  0
   33.1345   27.9901   37.6653 H   0  0  0  0  0  0  0  0  0  0  0  0
   30.9913   26.5598   39.3590 H   0  0  0  0  0  0  0  0  0  0  0  0
   32.6464   27.0815   39.8618 H   0  0  0  0  0  0  0  0  0  0  0  0
   29.6904   29.6316   36.9037 H   0  0  0  0  0  0  0  0  0  0  0  0
   31.4120   30.1700   36.8982 H   0  0  0  0  0  0  0  0  0  0  0  0
  1  2  1  0
  2  3  2  0
  2  4  1  0
  4  5  2  0
  5  6  1  0
  6  7  2  0
  7  8  1  0
  8  9  2  0
  9 10  1  0
 10 11  2  0
 11 12  1  0
 12 13  2  0
 13 14  1  0
  8 15  1  0
 15 16  1  0
 16 17  1  0
 17 18  1  0
 18 19  1  0
 19 20  1  0
 20 21  2  0
 21 22  1  0
 22 23  1  0
 20 24  1  0
 13  4  1  0
 23 15  1  0
 12  7  1  0
 22 18  2  0
  1 25  1  0
  1 26  1  0
  9 27  1  0
 10 28  1  0
 11 29  1  0
 14 30  1  0
 14 31  1  0
 16 32  1  0
 16 33  1  0
 17 34  1  0
 17 35  1  0
 23 36  1  0
 23 37  1  0
M  END
$$$$
confid_6
     RDKit          3D

 37 40  0  0  0  0  0  0  0  0999 V2000
   24.6900   26.1200   35.5300 N   0  0  0  0  0  0  0  0  0  0  0  0
   25.6600   25.6700   34.6600 C   0  0  0  0  0  0  0  0  0  0  0  0
   25.2400   25.0100   33.7200 O   0  0  0  0  0  0  0  0  0  0  0  0
   27.0300   26.2200   34.8800 C   0  0  0  0  0  0  0  0  0  0  0  0
   27.3500   26.7300   36.0700 N   0  0  0  0  0  0  0  0  0  0  0  0
   28.5700   27.1800   36.3300 N   0  0  0  0  0  0  0  0  0  0  0  0
   29.5300   27.1100   35.3900 C   0  0  0  0  0  0  0  0  0  0  0  0
   30.8300   27.5700   35.6500 C   0  0  0  0  0  0  0  0  0  0  0  0
   31.8500   27.5400   34.6900 C   0  0  0  0  0  0  0  0  0  0  0  0
   31.5100   27.1200   33.4000 C   0  0  0  0  0  0  0  0  0  0  0  0
   30.2200   26.6300   33.1100 C   0  0  0  0  0  0  0  0  0  0  0  0
   29.2400   26.6600   34.1000 C   0  0  0  0  0  0  0  0  0  0  0  0
   27.9300   26.2600   33.8100 C   0  0  0  0  0  0  0  0  0  0  0  0
   27.5200   25.7100   32.6100 N   0  0  0  0  0  0  0  0  0  0  0  0
   31.1577   28.0723   36.9557 N   0  0  0  0  0  0  0  0  0  0  0  0
   30.5002   29.2884   37.4616 C   0  0  0  0  0  0  0  0  0  0  0  0
   31.5254   30.2097   38.1345 C   0  0  0  0  0  0  0  0  0  0  0  0
   32.4096   29.4140   39.0397 C   0  0  0  0  0  0  0  0  0  0  0  0
   33.3845   30.0083   40.2724 S   0  0  0  0  0  0  0  0  0  0  0  0
   34.0429   28.4901   40.5937 C   0  0  0  0  0  0  0  0  0  0  0  0
   33.5517   27.5368   39.7703 N   0  0  0  0  0  0  0  0  0  0  0  0
   32.6515   28.0557   38.8944 C   0  0  0  0  0  0  0  0  0  0  0  0
   31.9379   27.2235   37.8707 C   0  0  0  0  0  0  0  0  0  0  0  0
   35.2336   28.1712   41.8361 Cl  0  0  0  0  0  0  0  0  0  0  0  0
   24.8908   26.7906   36.3050 H   0  0  0  0  0  0  0  0  0  0  0  0
   23.6981   25.8078   35.4227 H   0  0  0  0  0  0  0  0  0  0  0  0
   32.8494   27.8911   34.9150 H   0  0  0  0  0  0  0  0  0  0  0  0
   32.2638   27.1270   32.6233 H   0  0  0  0  0  0  0  0  0  0  0  0
   30.0100   26.3035   32.1003 H   0  0  0  0  0  0  0  0  0  0  0  0
   26.6941   26.1028   32.1054 H   0  0  0  0  0  0  0  0  0  0  0  0
   28.1317   25.0435   32.0892 H   0  0  0  0  0  0  0  0  0  0  0  0
   30.0078   29.8427   36.6323 H   0  0  0  0  0  0  0  0  0  0  0  0
   29.7189   29.0014   38.1987 H   0  0  0  0  0  0  0  0  0  0  0  0
   31.0000   30.9978   38.7146 H   0  0  0  0  0  0  0  0  0  0  0  0
   32.1542   30.6943   37.3575 H   0  0  0  0  0  0  0  0  0  0  0  0
   32.6919   26.6379   37.3017 H   0  0  0  0  0  0  0  0  0  0  0  0
   31.2541   26.5166   38.3863 H   0  0  0  0  0  0  0  0  0  0  0  0
  1  2  1  0
  2  3  2  0
  2  4  1  0
  4  5  2  0
  5  6  1  0
  6  7  2  0
  7  8  1  0
  8  9  2  0
  9 10  1  0
 10 11  2  0
 11 12  1  0
 12 13  2  0
 13 14  1  0
  8 15  1  0
 15 16  1  0
 16 17  1  0
 17 18  1  0
 18 19  1  0
 19 20  1  0
 20 21  2  0
 21 22  1  0
 22 23  1  0
 20 24  1  0
 13  4  1  0
 23 15  1  0
 12  7  1  0
 22 18  2  0
  1 25  1  0
  1 26  1  0
  9 27  1  0
 10 28  1  0
 11 29  1  0
 14 30  1  0
 14 31  1  0
 16 32  1  0
 16 33  1  0
 17 34  1  0
 17 35  1  0
 23 36  1  0
 23 37  1  0
M  END
$$$$
confid_7
     RDKit          3D

 37 40  0  0  0  0  0  0  0  0999 V2000
   24.6900   26.1200   35.5300 N   0  0  0  0  0  0  0  0  0  0  0  0
   25.6600   25.6700   34.6600 C   0  0  0  0  0  0  0  0  0  0  0  0
   25.2400   25.0100   33.7200 O   0  0  0  0  0  0  0  0  0  0  0  0
   27.0300   26.2200   34.8800 C   0  0  0  0  0  0  0  0  0  0  0  0
   27.3500   26.7300   36.0700 N   0  0  0  0  0  0  0  0  0  0  0  0
   28.5700   27.1800   36.3300 N   0  0  0  0  0  0  0  0  0  0  0  0
   29.5300   27.1100   35.3900 C   0  0  0  0  0  0  0  0  0  0  0  0
   30.8300   27.5700   35.6500 C   0  0  0  0  0  0  0  0  0  0  0  0
   31.8500   27.5400   34.6900 C   0  0  0  0  0  0  0  0  0  0  0  0
   31.5100   27.1200   33.4000 C   0  0  0  0  0  0  0  0  0  0  0  0
   30.2200   26.6300   33.1100 C   0  0  0  0  0  0  0  0  0  0  0  0
   29.2400   26.6600   34.1000 C   0  0  0  0  0  0  0  0  0  0  0  0
   27.9300   26.2600   33.8100 C   0  0  0  0  0  0  0  0  0  0  0  0
   27.5200   25.7100   32.6100 N   0  0  0  0  0  0  0  0  0  0  0  0
   31.1555   28.0642   36.9560 N   0  0  0  0  0  0  0  0  0  0  0  0
   30.8539   29.4648   37.2879 C   0  0  0  0  0  0  0  0  0  0  0  0
   31.9951   30.0775   38.1098 C   0  0  0  0  0  0  0  0  0  0  0  0
   32.4174   29.1297   39.1860 C   0  0  0  0  0  0  0  0  0  0  0  0
   33.3219   29.4978   40.5533 S   0  0  0  0  0  0  0  0  0  0  0  0
   33.3958   27.8850   41.0383 C   0  0  0  0  0  0  0  0  0  0  0  0
   32.7618   27.0629   40.1722 N   0  0  0  0  0  0  0  0  0  0  0  0
   32.2294   27.7561   39.1317 C   0  0  0  0  0  0  0  0  0  0  0  0
   31.4578   27.1005   38.0255 C   0  0  0  0  0  0  0  0  0  0  0  0
   34.2051   27.3231   42.4847 Cl  0  0  0  0  0  0  0  0  0  0  0  0
   23.6982   25.8077   35.4228 H   0  0  0  0  0  0  0  0  0  0  0  0
   24.8906   26.7912   36.3045 H   0  0  0  0  0  0  0  0  0  0  0  0
   32.8499   27.8879   34.9174 H   0  0  0  0  0  0  0  0  0  0  0  0
   32.2640   27.1263   32.6235 H   0  0  0  0  0  0  0  0  0  0  0  0
   30.0101   26.3034   32.1004 H   0  0  0  0  0  0  0  0  0  0  0  0
   28.1317   25.0436   32.0892 H   0  0  0  0  0  0  0  0  0  0  0  0
   26.6940   26.1027   32.1054 H   0  0  0  0  0  0  0  0  0  0  0  0
   30.7130   30.0658   36.3625 H   0  0  0  0  0  0  0  0  0  0  0  0
   29.9088   29.5047   37.8721 H   0  0  0  0  0  0  0  0  0  0  0  0
   32.8646   30.2736   37.4467 H   0  0  0  0  0  0  0  0  0  0  0  0
   31.6625   31.0374   38.5589 H   0  0  0  0  0  0  0  0  0  0  0  0
   32.0617   26.2610   37.6179 H   0  0  0  0  0  0  0  0  0  0  0  0
   30.5093   26.6935   38.4353 H   0  0  0  0  0  0  0  0  0  0  0  0
  1  2  1  0
  2  3  2  0
  2  4  1  0
  4  5  2  0
  5  6  1  0
  6  7  2  0
  7  8  1  0
  8  9  2  0
  9 10  1  0
 10 11  2  0
 11 12  1  0
 12 13  2  0
 13 14  1  0
  8 15  1  0
 15 16  1  0
 16 17  1  0
 17 18  1  0
 18 19  1  0
 19 20  1  0
 20 21  2  0
 21 22  1  0
 22 23  1  0
 20 24  1  0
 13  4  1  0
 23 15  1  0
 12  7  1  0
 22 18  2  0
  1 25  1  0
  1 26  1  0
  9 27  1  0
 10 28  1  0
 11 29  1  0
 14 30  1  0
 14 31  1  0
 16 32  1  0
 16 33  1  0
 17 34  1  0
 17 35  1  0
 23 36  1  0
 23 37  1  0
M  END
$$$$
confid_8
     RDKit          3D

 37 40  0  0  0  0  0  0  0  0999 V2000
   24.6900   26.1200   35.5300 N   0  0  0  0  0  0  0  0  0  0  0  0
   25.6600   25.6700   34.6600 C   0  0  0  0  0  0  0  0  0  0  0  0
   25.2400   25.0100   33.7200 O   0  0  0  0  0  0  0  0  0  0  0  0
   27.0300   26.2200   34.8800 C   0  0  0  0  0  0  0  0  0  0  0  0
   27.3500   26.7300   36.0700 N   0  0  0  0  0  0  0  0  0  0  0  0
   28.5700   27.1800   36.3300 N   0  0  0  0  0  0  0  0  0  0  0  0
   29.5300   27.1100   35.3900 C   0  0  0  0  0  0  0  0  0  0  0  0
   30.8300   27.5700   35.6500 C   0  0  0  0  0  0  0  0  0  0  0  0
   31.8500   27.5400   34.6900 C   0  0  0  0  0  0  0  0  0  0  0  0
   31.5100   27.1200   33.4000 C   0  0  0  0  0  0  0  0  0  0  0  0
   30.2200   26.6300   33.1100 C   0  0  0  0  0  0  0  0  0  0  0  0
   29.2400   26.6600   34.1000 C   0  0  0  0  0  0  0  0  0  0  0  0
   27.9300   26.2600   33.8100 C   0  0  0  0  0  0  0  0  0  0  0  0
   27.5200   25.7100   32.6100 N   0  0  0  0  0  0  0  0  0  0  0  0
   31.1458   28.0767   36.9550 N   0  0  0  0  0  0  0  0  0  0  0  0
   31.1913   29.5455   37.1299 C   0  0  0  0  0  0  0  0  0  0  0  0
   31.9669   29.9755   38.3837 C   0  0  0  0  0  0  0  0  0  0  0  0
   31.5693   29.1187   39.5316 C   0  0  0  0  0  0  0  0  0  0  0  0
   31.4783   29.5449   41.1540 S   0  0  0  0  0  0  0  0  0  0  0  0
   31.0231   27.9833   41.6083 C   0  0  0  0  0  0  0  0  0  0  0  0
   30.9584   27.1402   40.5526 N   0  0  0  0  0  0  0  0  0  0  0  0
   31.2605   27.7824   39.3947 C   0  0  0  0  0  0  0  0  0  0  0  0
   31.3125   27.1105   38.0598 C   0  0  0  0  0  0  0  0  0  0  0  0
   30.6753   27.4970   43.2526 Cl  0  0  0  0  0  0  0  0  0  0  0  0
   23.6994   25.8032   35.4263 H   0  0  0  0  0  0  0  0  0  0  0  0
   24.8903   26.7919   36.3039 H   0  0  0  0  0  0  0  0  0  0  0  0
   32.8510   27.8866   34.9165 H   0  0  0  0  0  0  0  0  0  0  0  0
   32.2655   27.1216   32.6246 H   0  0  0  0  0  0  0  0  0  0  0  0
   30.0118   26.2778   32.1074 H   0  0  0  0  0  0  0  0  0  0  0  0
   27.6986   26.2227   31.7186 H   0  0  0  0  0  0  0  0  0  0  0  0
   27.3400   24.6836   32.5419 H   0  0  0  0  0  0  0  0  0  0  0  0
   30.1489   29.9283   37.1909 H   0  0  0  0  0  0  0  0  0  0  0  0
   31.6717   30.0178   36.2452 H   0  0  0  0  0  0  0  0  0  0  0  0
   31.7501   31.0416   38.6101 H   0  0  0  0  0  0  0  0  0  0  0  0
   33.0585   29.8613   38.2067 H   0  0  0  0  0  0  0  0  0  0  0  0
   30.5071   26.3465   38.0216 H   0  0  0  0  0  0  0  0  0  0  0  0
   32.2892   26.5938   37.9503 H   0  0  0  0  0  0  0  0  0  0  0  0
  1  2  1  0
  2  3  2  0
  2  4  1  0
  4  5  2  0
  5  6  1  0
  6  7  2  0
  7  8  1  0
  8  9  2  0
  9 10  1  0
 10 11  2  0
 11 12  1  0
 12 13  2  0
 13 14  1  0
  8 15  1  0
 15 16  1  0
 16 17  1  0
 17 18  1  0
 18 19  1  0
 19 20  1  0
 20 21  2  0
 21 22  1  0
 22 23  1  0
 20 24  1  0
 13  4  1  0
 23 15  1  0
 12  7  1  0
 22 18  2  0
  1 25  1  0
  1 26  1  0
  9 27  1  0
 10 28  1  0
 11 29  1  0
 14 30  1  0
 14 31  1  0
 16 32  1  0
 16 33  1  0
 17 34  1  0
 17 35  1  0
 23 36  1  0
 23 37  1  0
M  END
$$$$
confid_9
     RDKit          3D

 37 40  0  0  0  0  0  0  0  0999 V2000
   24.6900   26.1200   35.5300 N   0  0  0  0  0  0  0  0  0  0  0  0
   25.6600   25.6700   34.6600 C   0  0  0  0  0  0  0  0  0  0  0  0
   25.2400   25.0100   33.7200 O   0  0  0  0  0  0  0  0  0  0  0  0
   27.0300   26.2200   34.8800 C   0  0  0  0  0  0  0  0  0  0  0  0
   27.3500   26.7300   36.0700 N   0  0  0  0  0  0  0  0  0  0  0  0
   28.5700   27.1800   36.3300 N   0  0  0  0  0  0  0  0  0  0  0  0
   29.5300   27.1100   35.3900 C   0  0  0  0  0  0  0  0  0  0  0  0
   30.8300   27.5700   35.6500 C   0  0  0  0  0  0  0  0  0  0  0  0
   31.8500   27.5400   34.6900 C   0  0  0  0  0  0  0  0  0  0  0  0
   31.5100   27.1200   33.4000 C   0  0  0  0  0  0  0  0  0  0  0  0
   30.2200   26.6300   33.1100 C   0  0  0  0  0  0  0  0  0  0  0  0
   29.2400   26.6600   34.1000 C   0  0  0  0  0  0  0  0  0  0  0  0
   27.9300   26.2600   33.8100 C   0  0  0  0  0  0  0  0  0  0  0  0
   27.5200   25.7100   32.6100 N   0  0  0  0  0  0  0  0  0  0  0  0
   31.1543   28.0817   36.9560 N   0  0  0  0  0  0  0  0  0  0  0  0
   32.1889   27.4290   37.7741 C   0  0  0  0  0  0  0  0  0  0  0  0
   33.2911   28.4345   38.1351 C   0  0  0  0  0  0  0  0  0  0  0  0
   32.6817   29.7301   38.5719 C   0  0  0  0  0  0  0  0  0  0  0  0
   33.4514   30.9764   39.3949 S   0  0  0  0  0  0  0  0  0  0  0  0
   32.0955   31.9752   39.3185 C   0  0  0  0  0  0  0  0  0  0  0  0
   31.0676   31.3902   38.6632 N   0  0  0  0  0  0  0  0  0  0  0  0
   31.4004   30.1449   38.2328 C   0  0  0  0  0  0  0  0  0  0  0  0
   30.4455   29.2535   37.4961 C   0  0  0  0  0  0  0  0  0  0  0  0
   32.0151   33.5872   39.9951 Cl  0  0  0  0  0  0  0  0  0  0  0  0
   24.8908   26.7906   36.3049 H   0  0  0  0  0  0  0  0  0  0  0  0
   23.6981   25.8078   35.4227 H   0  0  0  0  0  0  0  0  0  0  0  0
   32.8488   27.8946   34.9112 H   0  0  0  0  0  0  0  0  0  0  0  0
   32.2635   27.1280   32.6230 H   0  0  0  0  0  0  0  0  0  0  0  0
   30.0100   26.3037   32.1003 H   0  0  0  0  0  0  0  0  0  0  0  0
   28.1317   25.0436   32.0892 H   0  0  0  0  0  0  0  0  0  0  0  0
   26.6941   26.1028   32.1054 H   0  0  0  0  0  0  0  0  0  0  0  0
   32.6373   26.5637   37.2386 H   0  0  0  0  0  0  0  0  0  0  0  0
   31.7214   27.0428   38.7060 H   0  0  0  0  0  0  0  0  0  0  0  0
   33.9272   28.6225   37.2441 H   0  0  0  0  0  0  0  0  0  0  0  0
   33.9259   28.0218   38.9477 H   0  0  0  0  0  0  0  0  0  0  0  0
   29.6545   28.9149   38.1979 H   0  0  0  0  0  0  0  0  0  0  0  0
   29.9734   29.8335   36.6734 H   0  0  0  0  0  0  0  0  0  0  0  0
  1  2  1  0
  2  3  2  0
  2  4  1  0
  4  5  2  0
  5  6  1  0
  6  7  2  0
  7  8  1  0
  8  9  2  0
  9 10  1  0
 10 11  2  0
 11 12  1  0
 12 13  2  0
 13 14  1  0
  8 15  1  0
 15 16  1  0
 16 17  1  0
 17 18  1  0
 18 19  1  0
 19 20  1  0
 20 21  2  0
 21 22  1  0
 22 23  1  0
 20 24  1  0
 13  4  1  0
 23 15  1  0
 12  7  1  0
 22 18  2  0
  1 25  1  0
  1 26  1  0
  9 27  1  0
 10 28  1  0
 11 29  1  0
 14 30  1  0
 14 31  1  0
 16 32  1  0
 16 33  1  0
 17 34  1  0
 17 35  1  0
 23 36  1  0
 23 37  1  0
M  END
$$$$
confid_10
     RDKit          3D

 37 40  0  0  0  0  0  0  0  0999 V2000
   24.6900   26.1200   35.5300 N   0  0  0  0  0  0  0  0  0  0  0  0
   25.6600   25.6700   34.6600 C   0  0  0  0  0  0  0  0  0  0  0  0
   25.2400   25.0100   33.7200 O   0  0  0  0  0  0  0  0  0  0  0  0
   27.0300   26.2200   34.8800 C   0  0  0  0  0  0  0  0  0  0  0  0
   27.3500   26.7300   36.0700 N   0  0  0  0  0  0  0  0  0  0  0  0
   28.5700   27.1800   36.3300 N   0  0  0  0  0  0  0  0  0  0  0  0
   29.5300   27.1100   35.3900 C   0  0  0  0  0  0  0  0  0  0  0  0
   30.8300   27.5700   35.6500 C   0  0  0  0  0  0  0  0  0  0  0  0
   31.8500   27.5400   34.6900 C   0  0  0  0  0  0  0  0  0  0  0  0
   31.5100   27.1200   33.4000 C   0  0  0  0  0  0  0  0  0  0  0  0
   30.2200   26.6300   33.1100 C   0  0  0  0  0  0  0  0  0  0  0  0
   29.2400   26.6600   34.1000 C   0  0  0  0  0  0  0  0  0  0  0  0
   27.9300   26.2600   33.8100 C   0  0  0  0  0  0  0  0  0  0  0  0
   27.5200   25.7100   32.6100 N   0  0  0  0  0  0  0  0  0  0  0  0
   31.1534   28.0762   36.9522 N   0  0  0  0  0  0  0  0  0  0  0  0
   31.2979   27.1464   38.0827 C   0  0  0  0  0  0  0  0  0  0  0  0
   32.5269   27.5172   38.9242 C   0  0  0  0  0  0  0  0  0  0  0  0
   32.5736   28.9960   39.1464 C   0  0  0  0  0  0  0  0  0  0  0  0
   33.5003   29.8130   40.2847 S   0  0  0  0  0  0  0  0  0  0  0  0
   33.0187   31.3244   39.7133 C   0  0  0  0  0  0  0  0  0  0  0  0
   32.1801   31.2265   38.6581 N   0  0  0  0  0  0  0  0  0  0  0  0
   31.9477   29.9283   38.3306 C   0  0  0  0  0  0  0  0  0  0  0  0
   31.0530   29.5223   37.1983 C   0  0  0  0  0  0  0  0  0  0  0  0
   33.5426   32.8518   40.3888 Cl  0  0  0  0  0  0  0  0  0  0  0  0
   23.6949   25.8233   35.4110 H   0  0  0  0  0  0  0  0  0  0  0  0
   24.8941   26.7740   36.3176 H   0  0  0  0  0  0  0  0  0  0  0  0
   32.8500   27.8878   34.9170 H   0  0  0  0  0  0  0  0  0  0  0  0
   32.2655   27.1209   32.6250 H   0  0  0  0  0  0  0  0  0  0  0  0
   30.0115   26.2783   32.1078 H   0  0  0  0  0  0  0  0  0  0  0  0
   27.3409   24.6833   32.5417 H   0  0  0  0  0  0  0  0  0  0  0  0
   27.6980   26.2227   31.7183 H   0  0  0  0  0  0  0  0  0  0  0  0
   30.3836   27.1940   38.7135 H   0  0  0  0  0  0  0  0  0  0  0  0
   31.4111   26.1011   37.7189 H   0  0  0  0  0  0  0  0  0  0  0  0
   33.4489   27.2084   38.3862 H   0  0  0  0  0  0  0  0  0  0  0  0
   32.4861   26.9897   39.9007 H   0  0  0  0  0  0  0  0  0  0  0  0
   30.0032   29.7785   37.4540 H   0  0  0  0  0  0  0  0  0  0  0  0
   31.3495   30.0872   36.2876 H   0  0  0  0  0  0  0  0  0  0  0  0
  1  2  1  0
  2  3  2  0
  2  4  1  0
  4  5  2  0
  5  6  1  0
  6  7  2  0
  7  8  1  0
  8  9  2  0
  9 10  1  0
 10 11  2  0
 11 12  1  0
 12 13  2  0
 13 14  1  0
  8 15  1  0
 15 16  1  0
 16 17  1  0
 17 18  1  0
 18 19  1  0
 19 20  1  0
 20 21  2  0
 21 22  1  0
 22 23  1  0
 20 24  1  0
 13  4  1  0
 23 15  1  0
 12  7  1  0
 22 18  2  0
  1 25  1  0
  1 26  1  0
  9 27  1  0
 10 28  1  0
 11 29  1  0
 14 30  1  0
 14 31  1  0
 16 32  1  0
 16 33  1  0
 17 34  1  0
 17 35  1  0
 23 36  1  0
 23 37  1  0
M  END
$$$$
