confid_0
     RDKit          3D

 50 54  0  0  0  0  0  0  0  0999 V2000
   24.6900   26.1200   35.5300 N   0  0  0  0  0  0  0  0  0  0  0  0
   25.6600   25.6700   34.6600 C   0  0  0  0  0  0  0  0  0  0  0  0
   25.2400   25.0100   33.7200 O   0  0  0  0  0  0  0  0  0  0  0  0
   27.0300   26.2200   34.8800 C   0  0  0  0  0  0  0  0  0  0  0  0
   27.3500   26.7300   36.0700 N   0  0  0  0  0  0  0  0  0  0  0  0
   28.5700   27.1800   36.3300 N   0  0  0  0  0  0  0  0  0  0  0  0
   29.5300   27.1100   35.3900 C   0  0  0  0  0  0  0  0  0  0  0  0
   30.8300   27.5700   35.6500 C   0  0  0  0  0  0  0  0  0  0  0  0
   31.8500   27.5400   34.6900 C   0  0  0  0  0  0  0  0  0  0  0  0
   31.5100   27.1200   33.4000 C   0  0  0  0  0  0  0  0  0  0  0  0
   30.2200   26.6300   33.1100 C   0  0  0  0  0  0  0  0  0  0  0  0
   29.2400   26.6600   34.1000 C   0  0  0  0  0  0  0  0  0  0  0  0
   27.9300   26.2600   33.8100 C   0  0  0  0  0  0  0  0  0  0  0  0
   27.5200   25.7100   32.6100 N   0  0  0  0  0  0  0  0  0  0  0  0
   23.3137   26.3508   35.1742 C   0  0  0  0  0  0  0  0  0  0  0  0
   22.9773   26.4813   33.9183 N   0  0  0  0  0  0  0  0  0  0  0  0
   21.6518   26.7571   33.4518 C   0  0  0  0  0  0  0  0  0  0  0  0
   20.6418   25.9657   33.7877 C   0  0  0  0  0  0  0  0  0  0  0  0
   19.1463   25.9144   33.7038 C   0  0  0  0  0  0  0  0  0  0  0  0
   19.0204   24.7337   34.4317 O   0  0  0  0  0  0  0  0  0  0  0  0
   20.4097   24.6636   34.5020 C   0  0  0  0  0  0  0  0  0  0  0  0
   20.9289   24.5750   35.9539 C   0  0  0  0  0  0  0  0  0  0  0  0
   21.2825   25.8995   36.5918 C   0  0  0  0  0  0  0  0  0  0  0  0
   22.3498   26.6435   36.2617 C   0  0  0  0  0  0  0  0  0  0  0  0
   22.4937   27.7722   37.1081 N   0  0  0  0  0  0  0  0  0  0  0  0
   21.4122   27.7056   38.0168 C   0  0  0  0  0  0  0  0  0  0  0  0
   21.2130   28.5688   38.9127 O   0  0  0  0  0  0  0  0  0  0  0  0
   20.5590   26.4986   37.7813 C   0  0  0  0  0  0  0  0  0  0  0  0
   19.1241   26.9012   37.4160 C   0  0  0  0  0  0  0  0  0  0  0  0
   20.5978   25.5672   39.0030 C   0  0  0  0  0  0  0  0  0  0  0  0
   24.9490   26.2815   36.5299 H   0  0  0  0  0  0  0  0  0  0  0  0
   31.0673   27.9414   36.6394 H   0  0  0  0  0  0  0  0  0  0  0  0
   32.8486   27.8872   34.9214 H   0  0  0  0  0  0  0  0  0  0  0  0
   32.2655   27.1208   32.6249 H   0  0  0  0  0  0  0  0  0  0  0  0
   30.0114   26.2785   32.1078 H   0  0  0  0  0  0  0  0  0  0  0  0
   27.3406   24.6833   32.5417 H   0  0  0  0  0  0  0  0  0  0  0  0
   27.6974   26.2230   31.7183 H   0  0  0  0  0  0  0  0  0  0  0  0
   21.4712   27.6267   32.8348 H   0  0  0  0  0  0  0  0  0  0  0  0
   18.7886   25.7903   32.6578 H   0  0  0  0  0  0  0  0  0  0  0  0
   18.6685   26.7679   34.2315 H   0  0  0  0  0  0  0  0  0  0  0  0
   20.7818   23.8053   33.8968 H   0  0  0  0  0  0  0  0  0  0  0  0
   21.8377   23.9353   35.9686 H   0  0  0  0  0  0  0  0  0  0  0  0
   20.1688   24.0483   36.5673 H   0  0  0  0  0  0  0  0  0  0  0  0
   23.2334   28.5076   37.0608 H   0  0  0  0  0  0  0  0  0  0  0  0
   19.1222   27.6007   36.5524 H   0  0  0  0  0  0  0  0  0  0  0  0
   18.5273   26.0042   37.1453 H   0  0  0  0  0  0  0  0  0  0  0  0
   18.6333   27.4046   38.2764 H   0  0  0  0  0  0  0  0  0  0  0  0
   21.6402   25.2461   39.2182 H   0  0  0  0  0  0  0  0  0  0  0  0
   20.1986   26.0901   39.8986 H   0  0  0  0  0  0  0  0  0  0  0  0
   19.9782   24.6626   38.8294 H   0  0  0  0  0  0  0  0  0  0  0  0
  1  2  1  0
  2  3  2  0
  2  4  1  0
  4  5  2  0
  5  6  1  0
  6  7  2  0
  7  8  1  0
  8  9  2  0
  9 10  1  0
 10 11  2  0
 11 12  1  0
 12 13  2  0
 13 14  1  0
  1 15  1  0
 15 16  2  0
 16 17  1  0
 17 18  2  0
 18 19  1  0
 19 20  1  0
 20 21  1  0
 21 22  1  0
 22 23  1  0
 23 24  2  0
 24 25  1  0
 25 26  1  0
 26 27  2  0
 26 28  1  0
 28 29  1  0
 28 30  1  0
 13  4  1  0
 24 15  1  0
 12  7  1  0
 21 18  1  0
 28 23  1  0
  1 31  1  0
  8 32  1  0
  9 33  1  0
 10 34  1  0
 11 35  1  0
 14 36  1  0
 14 37  1  0
 17 38  1  0
 19 39  1  0
 19 40  1  0
 21 41  1  0
 22 42  1  0
 22 43  1  0
 25 44  1  0
 29 45  1  0
 29 46  1  0
 29 47  1  0
 30 48  1  0
 30 49  1  0
 30 50  1  0
M  END
$$$$
