confid_0
     RDKit          3D

 44 48  0  0  0  0  0  0  0  0999 V2000
   24.6900   26.1200   35.5300 N   0  0  0  0  0  0  0  0  0  0  0  0
   25.6600   25.6700   34.6600 C   0  0  0  0  0  0  0  0  0  0  0  0
   25.2400   25.0100   33.7200 O   0  0  0  0  0  0  0  0  0  0  0  0
   27.0300   26.2200   34.8800 C   0  0  0  0  0  0  0  0  0  0  0  0
   27.3500   26.7300   36.0700 N   0  0  0  0  0  0  0  0  0  0  0  0
   28.5700   27.1800   36.3300 N   0  0  0  0  0  0  0  0  0  0  0  0
   29.5300   27.1100   35.3900 C   0  0  0  0  0  0  0  0  0  0  0  0
   30.8300   27.5700   35.6500 C   0  0  0  0  0  0  0  0  0  0  0  0
   31.8500   27.5400   34.6900 C   0  0  0  0  0  0  0  0  0  0  0  0
   31.5100   27.1200   33.4000 C   0  0  0  0  0  0  0  0  0  0  0  0
   30.2200   26.6300   33.1100 C   0  0  0  0  0  0  0  0  0  0  0  0
   29.2400   26.6600   34.1000 C   0  0  0  0  0  0  0  0  0  0  0  0
   27.9300   26.2600   33.8100 C   0  0  0  0  0  0  0  0  0  0  0  0
   27.5200   25.7100   32.6100 N   0  0  0  0  0  0  0  0  0  0  0  0
   23.4451   25.4424   35.7812 C   0  0  0  0  0  0  0  0  0  0  0  0
   23.3219   24.1738   35.4862 N   0  0  0  0  0  0  0  0  0  0  0  0
   22.1435   23.3953   35.7244 C   0  0  0  0  0  0  0  0  0  0  0  0
   20.9806   23.7743   35.2115 C   0  0  0  0  0  0  0  0  0  0  0  0
   19.5135   23.5051   35.3612 C   0  0  0  0  0  0  0  0  0  0  0  0
   19.1105   24.5412   34.5195 O   0  0  0  0  0  0  0  0  0  0  0  0
   20.4518   24.8108   34.2606 C   0  0  0  0  0  0  0  0  0  0  0  0
   20.8521   26.2665   34.5779 C   0  0  0  0  0  0  0  0  0  0  0  0
   21.2046   26.5154   36.0246 C   0  0  0  0  0  0  0  0  0  0  0  0
   22.3985   26.1642   36.5511 C   0  0  0  0  0  0  0  0  0  0  0  0
   22.6641   26.4709   37.8918 O   0  0  0  0  0  0  0  0  0  0  0  0
   21.8596   27.3763   38.6526 C   0  0  0  0  0  0  0  0  0  0  0  0
   20.4661   27.4672   38.0990 C   0  0  0  0  0  0  0  0  0  0  0  0
   20.2141   27.1115   36.8754 N   0  0  0  0  0  0  0  0  0  0  0  0
   24.8360   27.0328   36.0197 H   0  0  0  0  0  0  0  0  0  0  0  0
   31.0672   27.9418   36.6392 H   0  0  0  0  0  0  0  0  0  0  0  0
   32.8483   27.8886   34.9210 H   0  0  0  0  0  0  0  0  0  0  0  0
   32.2640   27.1262   32.6235 H   0  0  0  0  0  0  0  0  0  0  0  0
   30.0100   26.3034   32.1003 H   0  0  0  0  0  0  0  0  0  0  0  0
   26.6934   26.1022   32.1057 H   0  0  0  0  0  0  0  0  0  0  0  0
   28.1320   25.0443   32.0887 H   0  0  0  0  0  0  0  0  0  0  0  0
   22.1902   22.5396   36.3839 H   0  0  0  0  0  0  0  0  0  0  0  0
   19.1635   23.6767   36.4035 H   0  0  0  0  0  0  0  0  0  0  0  0
   19.2234   22.5097   34.9572 H   0  0  0  0  0  0  0  0  0  0  0  0
   20.7015   24.5533   33.2057 H   0  0  0  0  0  0  0  0  0  0  0  0
   21.7226   26.5435   33.9434 H   0  0  0  0  0  0  0  0  0  0  0  0
   20.0236   26.9436   34.2766 H   0  0  0  0  0  0  0  0  0  0  0  0
   22.3209   28.3858   38.6199 H   0  0  0  0  0  0  0  0  0  0  0  0
   21.8226   27.0347   39.7079 H   0  0  0  0  0  0  0  0  0  0  0  0
   19.6861   27.9281   38.6905 H   0  0  0  0  0  0  0  0  0  0  0  0
  1  2  1  0
  2  3  2  0
  2  4  1  0
  4  5  2  0
  5  6  1  0
  6  7  2  0
  7  8  1  0
  8  9  2  0
  9 10  1  0
 10 11  2  0
 11 12  1  0
 12 13  2  0
 13 14  1  0
  1 15  1  0
 15 16  2  0
 16 17  1  0
 17 18  2  0
 18 19  1  0
 19 20  1  0
 20 21  1  0
 21 22  1  0
 22 23  1  0
 23 24  2  0
 24 25  1  0
 25 26  1  0
 26 27  1  0
 27 28  2  0
 13  4  1  0
 24 15  1  0
 12  7  1  0
 21 18  1  0
 28 23  1  0
  1 29  1  0
  8 30  1  0
  9 31  1  0
 10 32  1  0
 11 33  1  0
 14 34  1  0
 14 35  1  0
 17 36  1  0
 19 37  1  0
 19 38  1  0
 21 39  1  0
 22 40  1  0
 22 41  1  0
 26 42  1  0
 26 43  1  0
 27 44  1  0
M  END
$$$$
confid_1
     RDKit          3D

 44 48  0  0  0  0  0  0  0  0999 V2000
   24.6900   26.1200   35.5300 N   0  0  0  0  0  0  0  0  0  0  0  0
   25.6600   25.6700   34.6600 C   0  0  0  0  0  0  0  0  0  0  0  0
   25.2400   25.0100   33.7200 O   0  0  0  0  0  0  0  0  0  0  0  0
   27.0300   26.2200   34.8800 C   0  0  0  0  0  0  0  0  0  0  0  0
   27.3500   26.7300   36.0700 N   0  0  0  0  0  0  0  0  0  0  0  0
   28.5700   27.1800   36.3300 N   0  0  0  0  0  0  0  0  0  0  0  0
   29.5300   27.1100   35.3900 C   0  0  0  0  0  0  0  0  0  0  0  0
   30.8300   27.5700   35.6500 C   0  0  0  0  0  0  0  0  0  0  0  0
   31.8500   27.5400   34.6900 C   0  0  0  0  0  0  0  0  0  0  0  0
   31.5100   27.1200   33.4000 C   0  0  0  0  0  0  0  0  0  0  0  0
   30.2200   26.6300   33.1100 C   0  0  0  0  0  0  0  0  0  0  0  0
   29.2400   26.6600   34.1000 C   0  0  0  0  0  0  0  0  0  0  0  0
   27.9300   26.2600   33.8100 C   0  0  0  0  0  0  0  0  0  0  0  0
   27.5200   25.7100   32.6100 N   0  0  0  0  0  0  0  0  0  0  0  0
   23.3259   26.4068   35.1582 C   0  0  0  0  0  0  0  0  0  0  0  0
   23.0594   26.6060   33.8926 N   0  0  0  0  0  0  0  0  0  0  0  0
   21.8856   26.8849   33.1106 C   0  0  0  0  0  0  0  0  0  0  0  0
   20.6656   26.4778   33.4347 C   0  0  0  0  0  0  0  0  0  0  0  0
   19.4891   25.9159   32.6874 C   0  0  0  0  0  0  0  0  0  0  0  0
   18.8554   25.4102   33.8185 O   0  0  0  0  0  0  0  0  0  0  0  0
   19.8356   26.0245   34.5891 C   0  0  0  0  0  0  0  0  0  0  0  0
   20.6065   25.0842   35.5086 C   0  0  0  0  0  0  0  0  0  0  0  0
   21.2650   25.9596   36.5306 C   0  0  0  0  0  0  0  0  0  0  0  0
   22.3903   26.6624   36.2806 C   0  0  0  0  0  0  0  0  0  0  0  0
   22.7936   27.6295   37.2125 O   0  0  0  0  0  0  0  0  0  0  0  0
   22.2842   27.6940   38.5454 C   0  0  0  0  0  0  0  0  0  0  0  0
   20.9240   27.0735   38.6346 C   0  0  0  0  0  0  0  0  0  0  0  0
   20.5075   26.2590   37.7145 N   0  0  0  0  0  0  0  0  0  0  0  0
   24.9455   26.2292   36.5380 H   0  0  0  0  0  0  0  0  0  0  0  0
   31.0672   27.9417   36.6393 H   0  0  0  0  0  0  0  0  0  0  0  0
   32.8482   27.8886   34.9211 H   0  0  0  0  0  0  0  0  0  0  0  0
   32.2640   27.1263   32.6235 H   0  0  0  0  0  0  0  0  0  0  0  0
   30.0101   26.3034   32.1004 H   0  0  0  0  0  0  0  0  0  0  0  0
   26.6932   26.1019   32.1061 H   0  0  0  0  0  0  0  0  0  0  0  0
   28.1317   25.0439   32.0889 H   0  0  0  0  0  0  0  0  0  0  0  0
   22.0545   27.0822   32.0606 H   0  0  0  0  0  0  0  0  0  0  0  0
   19.7876   25.0959   31.9979 H   0  0  0  0  0  0  0  0  0  0  0  0
   18.8835   26.7078   32.1923 H   0  0  0  0  0  0  0  0  0  0  0  0
   19.3899   26.8930   35.1331 H   0  0  0  0  0  0  0  0  0  0  0  0
   21.3464   24.4622   34.9575 H   0  0  0  0  0  0  0  0  0  0  0  0
   19.8944   24.3984   36.0160 H   0  0  0  0  0  0  0  0  0  0  0  0
   22.9713   27.1449   39.2226 H   0  0  0  0  0  0  0  0  0  0  0  0
   22.2355   28.7547   38.8677 H   0  0  0  0  0  0  0  0  0  0  0  0
   20.3162   27.2408   39.5137 H   0  0  0  0  0  0  0  0  0  0  0  0
  1  2  1  0
  2  3  2  0
  2  4  1  0
  4  5  2  0
  5  6  1  0
  6  7  2  0
  7  8  1  0
  8  9  2  0
  9 10  1  0
 10 11  2  0
 11 12  1  0
 12 13  2  0
 13 14  1  0
  1 15  1  0
 15 16  2  0
 16 17  1  0
 17 18  2  0
 18 19  1  0
 19 20  1  0
 20 21  1  0
 21 22  1  0
 22 23  1  0
 23 24  2  0
 24 25  1  0
 25 26  1  0
 26 27  1  0
 27 28  2  0
 13  4  1  0
 24 15  1  0
 12  7  1  0
 21 18  1  0
 28 23  1  0
  1 29  1  0
  8 30  1  0
  9 31  1  0
 10 32  1  0
 11 33  1  0
 14 34  1  0
 14 35  1  0
 17 36  1  0
 19 37  1  0
 19 38  1  0
 21 39  1  0
 22 40  1  0
 22 41  1  0
 26 42  1  0
 26 43  1  0
 27 44  1  0
M  END
$$$$
