confid_0
     RDKit          3D

 39 42  0  0  0  0  0  0  0  0999 V2000
   24.4800   26.1000   36.1300 N   0  0  0  0  0  0  0  0  0  0  0  0
   25.2500   26.2500   34.9900 C   0  0  0  0  0  0  0  0  0  0  0  0
   24.7400   25.7600   33.9900 O   0  0  0  0  0  0  0  0  0  0  0  0
   26.5900   26.8900   34.9600 C   0  0  0  0  0  0  0  0  0  0  0  0
   27.0600   27.2400   36.1600 N   0  0  0  0  0  0  0  0  0  0  0  0
   28.3000   27.7100   36.2400 N   0  0  0  0  0  0  0  0  0  0  0  0
   29.0500   27.9600   35.1500 C   0  0  0  0  0  0  0  0  0  0  0  0
   30.3400   28.4900   35.2600 C   0  0  0  0  0  0  0  0  0  0  0  0
   31.1100   28.8200   34.1400 C   0  0  0  0  0  0  0  0  0  0  0  0
   30.5200   28.6700   32.8800 C   0  0  0  0  0  0  0  0  0  0  0  0
   29.2900   28.0200   32.7700 C   0  0  0  0  0  0  0  0  0  0  0  0
   28.5200   27.7100   33.8900 C   0  0  0  0  0  0  0  0  0  0  0  0
   27.2700   27.0800   33.7600 C   0  0  0  0  0  0  0  0  0  0  0  0
   26.7500   26.8800   32.4900 N   0  0  0  0  0  0  0  0  0  0  0  0
   23.5391   25.0382   36.3624 C   0  0  0  0  0  0  0  0  0  0  0  0
   23.5342   23.7861   35.7225 C   0  0  0  0  0  0  0  0  0  0  0  0
   22.5340   22.9745   36.2473 C   0  0  0  0  0  0  0  0  0  0  0  0
   22.1466   21.5407   36.0495 C   0  0  0  0  0  0  0  0  0  0  0  0
   21.0995   21.3401   37.0707 N   0  0  0  0  0  0  0  0  0  0  0  0
   20.9259   22.5688   37.7902 C   0  0  0  0  0  0  0  0  0  0  0  0
   20.1406   22.7467   38.7581 O   0  0  0  0  0  0  0  0  0  0  0  0
   21.8185   23.5445   37.2395 C   0  0  0  0  0  0  0  0  0  0  0  0
   22.3561   25.0908   37.5916 S   0  0  0  0  0  0  0  0  0  0  0  0
   20.4073   20.0979   37.2815 C   0  0  0  0  0  0  0  0  0  0  0  0
   20.6935   19.0991   36.5678 O   0  0  0  0  0  0  0  0  0  0  0  0
   19.3504   19.9584   38.3323 C   0  0  0  0  0  0  0  0  0  0  0  0
   24.5871   26.8101   36.8885 H   0  0  0  0  0  0  0  0  0  0  0  0
   30.7580   28.6629   36.2441 H   0  0  0  0  0  0  0  0  0  0  0  0
   32.0983   29.2479   34.2470 H   0  0  0  0  0  0  0  0  0  0  0  0
   31.0669   28.9543   31.9901 H   0  0  0  0  0  0  0  0  0  0  0  0
   28.9258   27.8587   31.7656 H   0  0  0  0  0  0  0  0  0  0  0  0
   27.2969   26.3786   31.7554 H   0  0  0  0  0  0  0  0  0  0  0  0
   25.7672   27.1502   32.2658 H   0  0  0  0  0  0  0  0  0  0  0  0
   24.2370   23.4645   34.9662 H   0  0  0  0  0  0  0  0  0  0  0  0
   23.0122   20.8726   36.2446 H   0  0  0  0  0  0  0  0  0  0  0  0
   21.7338   21.3848   35.0303 H   0  0  0  0  0  0  0  0  0  0  0  0
   18.5316   20.6823   38.1396 H   0  0  0  0  0  0  0  0  0  0  0  0
   18.9235   18.9329   38.3214 H   0  0  0  0  0  0  0  0  0  0  0  0
   19.7902   20.1463   39.3337 H   0  0  0  0  0  0  0  0  0  0  0  0
  1  2  1  0
  2  3  2  0
  2  4  1  0
  4  5  2  0
  5  6  1  0
  6  7  2  0
  7  8  1  0
  8  9  2  0
  9 10  1  0
 10 11  2  0
 11 12  1  0
 12 13  2  0
 13 14  1  0
  1 15  1  0
 15 16  2  0
 16 17  1  0
 17 18  1  0
 18 19  1  0
 19 20  1  0
 20 21  2  0
 20 22  1  0
 22 23  1  0
 19 24  1  0
 24 25  2  0
 24 26  1  0
 13  4  1  0
 23 15  1  0
 12  7  1  0
 22 17  2  0
  1 27  1  0
  8 28  1  0
  9 29  1  0
 10 30  1  0
 11 31  1  0
 14 32  1  0
 14 33  1  0
 16 34  1  0
 18 35  1  0
 18 36  1  0
 26 37  1  0
 26 38  1  0
 26 39  1  0
M  END
$$$$
confid_1
     RDKit          3D

 39 42  0  0  0  0  0  0  0  0999 V2000
   24.4800   26.1000   36.1300 N   0  0  0  0  0  0  0  0  0  0  0  0
   25.2500   26.2500   34.9900 C   0  0  0  0  0  0  0  0  0  0  0  0
   24.7400   25.7600   33.9900 O   0  0  0  0  0  0  0  0  0  0  0  0
   26.5900   26.8900   34.9600 C   0  0  0  0  0  0  0  0  0  0  0  0
   27.0600   27.2400   36.1600 N   0  0  0  0  0  0  0  0  0  0  0  0
   28.3000   27.7100   36.2400 N   0  0  0  0  0  0  0  0  0  0  0  0
   29.0500   27.9600   35.1500 C   0  0  0  0  0  0  0  0  0  0  0  0
   30.3400   28.4900   35.2600 C   0  0  0  0  0  0  0  0  0  0  0  0
   31.1100   28.8200   34.1400 C   0  0  0  0  0  0  0  0  0  0  0  0
   30.5200   28.6700   32.8800 C   0  0  0  0  0  0  0  0  0  0  0  0
   29.2900   28.0200   32.7700 C   0  0  0  0  0  0  0  0  0  0  0  0
   28.5200   27.7100   33.8900 C   0  0  0  0  0  0  0  0  0  0  0  0
   27.2700   27.0800   33.7600 C   0  0  0  0  0  0  0  0  0  0  0  0
   26.7500   26.8800   32.4900 N   0  0  0  0  0  0  0  0  0  0  0  0
   23.5412   25.0366   36.3635 C   0  0  0  0  0  0  0  0  0  0  0  0
   23.5365   23.7851   35.7224 C   0  0  0  0  0  0  0  0  0  0  0  0
   22.5372   22.9723   36.2472 C   0  0  0  0  0  0  0  0  0  0  0  0
   22.1461   21.5398   36.0436 C   0  0  0  0  0  0  0  0  0  0  0  0
   21.0977   21.3412   37.0642 N   0  0  0  0  0  0  0  0  0  0  0  0
   20.9264   22.5657   37.7867 C   0  0  0  0  0  0  0  0  0  0  0  0
   20.1349   22.7372   38.7510 O   0  0  0  0  0  0  0  0  0  0  0  0
   21.8226   23.5412   37.2415 C   0  0  0  0  0  0  0  0  0  0  0  0
   22.3586   25.0880   37.5936 S   0  0  0  0  0  0  0  0  0  0  0  0
   20.3834   20.1169   37.2968 C   0  0  0  0  0  0  0  0  0  0  0  0
   19.5069   20.0586   38.2008 O   0  0  0  0  0  0  0  0  0  0  0  0
   20.6662   18.9004   36.4727 C   0  0  0  0  0  0  0  0  0  0  0  0
   24.5861   26.8110   36.8879 H   0  0  0  0  0  0  0  0  0  0  0  0
   30.7582   28.6623   36.2441 H   0  0  0  0  0  0  0  0  0  0  0  0
   32.0994   29.2455   34.2469 H   0  0  0  0  0  0  0  0  0  0  0  0
   31.0716   28.9442   31.9898 H   0  0  0  0  0  0  0  0  0  0  0  0
   28.9437   27.8129   31.7669 H   0  0  0  0  0  0  0  0  0  0  0  0
   26.7157   27.6566   31.7925 H   0  0  0  0  0  0  0  0  0  0  0  0
   26.3615   25.9529   32.2111 H   0  0  0  0  0  0  0  0  0  0  0  0
   24.2375   23.4651   34.9637 H   0  0  0  0  0  0  0  0  0  0  0  0
   21.7335   21.3902   35.0235 H   0  0  0  0  0  0  0  0  0  0  0  0
   23.0101   20.8696   36.2374 H   0  0  0  0  0  0  0  0  0  0  0  0
   21.7301   18.6076   36.5913 H   0  0  0  0  0  0  0  0  0  0  0  0
   20.4609   19.1173   35.4039 H   0  0  0  0  0  0  0  0  0  0  0  0
   20.0248   18.0525   36.7945 H   0  0  0  0  0  0  0  0  0  0  0  0
  1  2  1  0
  2  3  2  0
  2  4  1  0
  4  5  2  0
  5  6  1  0
  6  7  2  0
  7  8  1  0
  8  9  2  0
  9 10  1  0
 10 11  2  0
 11 12  1  0
 12 13  2  0
 13 14  1  0
  1 15  1  0
 15 16  2  0
 16 17  1  0
 17 18  1  0
 18 19  1  0
 19 20  1  0
 20 21  2  0
 20 22  1  0
 22 23  1  0
 19 24  1  0
 24 25  2  0
 24 26  1  0
 13  4  1  0
 23 15  1  0
 12  7  1  0
 22 17  2  0
  1 27  1  0
  8 28  1  0
  9 29  1  0
 10 30  1  0
 11 31  1  0
 14 32  1  0
 14 33  1  0
 16 34  1  0
 18 35  1  0
 18 36  1  0
 26 37  1  0
 26 38  1  0
 26 39  1  0
M  END
$$$$
confid_2
     RDKit          3D

 39 42  0  0  0  0  0  0  0  0999 V2000
   24.4800   26.1000   36.1300 N   0  0  0  0  0  0  0  0  0  0  0  0
   25.2500   26.2500   34.9900 C   0  0  0  0  0  0  0  0  0  0  0  0
   24.7400   25.7600   33.9900 O   0  0  0  0  0  0  0  0  0  0  0  0
   26.5900   26.8900   34.9600 C   0  0  0  0  0  0  0  0  0  0  0  0
   27.0600   27.2400   36.1600 N   0  0  0  0  0  0  0  0  0  0  0  0
   28.3000   27.7100   36.2400 N   0  0  0  0  0  0  0  0  0  0  0  0
   29.0500   27.9600   35.1500 C   0  0  0  0  0  0  0  0  0  0  0  0
   30.3400   28.4900   35.2600 C   0  0  0  0  0  0  0  0  0  0  0  0
   31.1100   28.8200   34.1400 C   0  0  0  0  0  0  0  0  0  0  0  0
   30.5200   28.6700   32.8800 C   0  0  0  0  0  0  0  0  0  0  0  0
   29.2900   28.0200   32.7700 C   0  0  0  0  0  0  0  0  0  0  0  0
   28.5200   27.7100   33.8900 C   0  0  0  0  0  0  0  0  0  0  0  0
   27.2700   27.0800   33.7600 C   0  0  0  0  0  0  0  0  0  0  0  0
   26.7500   26.8800   32.4900 N   0  0  0  0  0  0  0  0  0  0  0  0
   23.0442   26.0358   36.1522 C   0  0  0  0  0  0  0  0  0  0  0  0
   22.1827   26.4958   35.1406 C   0  0  0  0  0  0  0  0  0  0  0  0
   20.8548   26.3445   35.5256 C   0  0  0  0  0  0  0  0  0  0  0  0
   19.5435   26.7496   34.9242 C   0  0  0  0  0  0  0  0  0  0  0  0
   18.5747   26.3919   35.9792 N   0  0  0  0  0  0  0  0  0  0  0  0
   19.2956   25.8386   37.0889 C   0  0  0  0  0  0  0  0  0  0  0  0
   18.7882   25.4593   38.1769 O   0  0  0  0  0  0  0  0  0  0  0  0
   20.6891   25.8193   36.7575 C   0  0  0  0  0  0  0  0  0  0  0  0
   22.1529   25.5093   37.5095 S   0  0  0  0  0  0  0  0  0  0  0  0
   17.1555   26.5953   35.8721 C   0  0  0  0  0  0  0  0  0  0  0  0
   16.6800   27.1146   34.8266 O   0  0  0  0  0  0  0  0  0  0  0  0
   16.2227   26.2049   36.9757 C   0  0  0  0  0  0  0  0  0  0  0  0
   24.9684   26.0381   37.0511 H   0  0  0  0  0  0  0  0  0  0  0  0
   30.7582   28.6623   36.2441 H   0  0  0  0  0  0  0  0  0  0  0  0
   32.0994   29.2455   34.2469 H   0  0  0  0  0  0  0  0  0  0  0  0
   31.0715   28.9442   31.9898 H   0  0  0  0  0  0  0  0  0  0  0  0
   28.9437   27.8129   31.7669 H   0  0  0  0  0  0  0  0  0  0  0  0
   26.7154   27.6567   31.7927 H   0  0  0  0  0  0  0  0  0  0  0  0
   26.3613   25.9530   32.2111 H   0  0  0  0  0  0  0  0  0  0  0  0
   22.4932   26.9526   34.2109 H   0  0  0  0  0  0  0  0  0  0  0  0
   19.3437   26.1711   33.9975 H   0  0  0  0  0  0  0  0  0  0  0  0
   19.5236   27.8436   34.7333 H   0  0  0  0  0  0  0  0  0  0  0  0
   15.1708   26.4215   36.6913 H   0  0  0  0  0  0  0  0  0  0  0  0
   16.4653   26.7806   37.8930 H   0  0  0  0  0  0  0  0  0  0  0  0
   16.3153   25.1177   37.1786 H   0  0  0  0  0  0  0  0  0  0  0  0
  1  2  1  0
  2  3  2  0
  2  4  1  0
  4  5  2  0
  5  6  1  0
  6  7  2  0
  7  8  1  0
  8  9  2  0
  9 10  1  0
 10 11  2  0
 11 12  1  0
 12 13  2  0
 13 14  1  0
  1 15  1  0
 15 16  2  0
 16 17  1  0
 17 18  1  0
 18 19  1  0
 19 20  1  0
 20 21  2  0
 20 22  1  0
 22 23  1  0
 19 24  1  0
 24 25  2  0
 24 26  1  0
 13  4  1  0
 23 15  1  0
 12  7  1  0
 22 17  2  0
  1 27  1  0
  8 28  1  0
  9 29  1  0
 10 30  1  0
 11 31  1  0
 14 32  1  0
 14 33  1  0
 16 34  1  0
 18 35  1  0
 18 36  1  0
 26 37  1  0
 26 38  1  0
 26 39  1  0
M  END
$$$$
confid_3
     RDKit          3D

 39 42  0  0  0  0  0  0  0  0999 V2000
   24.4800   26.1000   36.1300 N   0  0  0  0  0  0  0  0  0  0  0  0
   25.2500   26.2500   34.9900 C   0  0  0  0  0  0  0  0  0  0  0  0
   24.7400   25.7600   33.9900 O   0  0  0  0  0  0  0  0  0  0  0  0
   26.5900   26.8900   34.9600 C   0  0  0  0  0  0  0  0  0  0  0  0
   27.0600   27.2400   36.1600 N   0  0  0  0  0  0  0  0  0  0  0  0
   28.3000   27.7100   36.2400 N   0  0  0  0  0  0  0  0  0  0  0  0
   29.0500   27.9600   35.1500 C   0  0  0  0  0  0  0  0  0  0  0  0
   30.3400   28.4900   35.2600 C   0  0  0  0  0  0  0  0  0  0  0  0
   31.1100   28.8200   34.1400 C   0  0  0  0  0  0  0  0  0  0  0  0
   30.5200   28.6700   32.8800 C   0  0  0  0  0  0  0  0  0  0  0  0
   29.2900   28.0200   32.7700 C   0  0  0  0  0  0  0  0  0  0  0  0
   28.5200   27.7100   33.8900 C   0  0  0  0  0  0  0  0  0  0  0  0
   27.2700   27.0800   33.7600 C   0  0  0  0  0  0  0  0  0  0  0  0
   26.7500   26.8800   32.4900 N   0  0  0  0  0  0  0  0  0  0  0  0
   23.5306   25.0439   36.3608 C   0  0  0  0  0  0  0  0  0  0  0  0
   22.6317   25.0338   37.4365 C   0  0  0  0  0  0  0  0  0  0  0  0
   21.8875   23.8588   37.4445 C   0  0  0  0  0  0  0  0  0  0  0  0
   20.8552   23.2825   38.3649 C   0  0  0  0  0  0  0  0  0  0  0  0
   20.5950   21.9544   37.7747 N   0  0  0  0  0  0  0  0  0  0  0  0
   21.4257   21.8021   36.6151 C   0  0  0  0  0  0  0  0  0  0  0  0
   21.4795   20.7810   35.8807 O   0  0  0  0  0  0  0  0  0  0  0  0
   22.1935   22.9999   36.4500 C   0  0  0  0  0  0  0  0  0  0  0  0
   23.4176   23.5854   35.4688 S   0  0  0  0  0  0  0  0  0  0  0  0
   19.6608   21.0031   38.3122 C   0  0  0  0  0  0  0  0  0  0  0  0
   19.0129   21.2904   39.3547 O   0  0  0  0  0  0  0  0  0  0  0  0
   19.4364   19.6729   37.6634 C   0  0  0  0  0  0  0  0  0  0  0  0
   24.6149   26.7915   36.9017 H   0  0  0  0  0  0  0  0  0  0  0  0
   30.7580   28.6629   36.2441 H   0  0  0  0  0  0  0  0  0  0  0  0
   32.0983   29.2479   34.2470 H   0  0  0  0  0  0  0  0  0  0  0  0
   31.0669   28.9543   31.9901 H   0  0  0  0  0  0  0  0  0  0  0  0
   28.9258   27.8587   31.7656 H   0  0  0  0  0  0  0  0  0  0  0  0
   27.2968   26.3786   31.7554 H   0  0  0  0  0  0  0  0  0  0  0  0
   25.7672   27.1502   32.2658 H   0  0  0  0  0  0  0  0  0  0  0  0
   22.5402   25.8214   38.1726 H   0  0  0  0  0  0  0  0  0  0  0  0
   21.2637   23.1782   39.3925 H   0  0  0  0  0  0  0  0  0  0  0  0
   19.9334   23.9019   38.3543 H   0  0  0  0  0  0  0  0  0  0  0  0
   20.3826   19.0930   37.6597 H   0  0  0  0  0  0  0  0  0  0  0  0
   19.0805   19.8184   36.6223 H   0  0  0  0  0  0  0  0  0  0  0  0
   18.6697   19.0927   38.2198 H   0  0  0  0  0  0  0  0  0  0  0  0
  1  2  1  0
  2  3  2  0
  2  4  1  0
  4  5  2  0
  5  6  1  0
  6  7  2  0
  7  8  1  0
  8  9  2  0
  9 10  1  0
 10 11  2  0
 11 12  1  0
 12 13  2  0
 13 14  1  0
  1 15  1  0
 15 16  2  0
 16 17  1  0
 17 18  1  0
 18 19  1  0
 19 20  1  0
 20 21  2  0
 20 22  1  0
 22 23  1  0
 19 24  1  0
 24 25  2  0
 24 26  1  0
 13  4  1  0
 23 15  1  0
 12  7  1  0
 22 17  2  0
  1 27  1  0
  8 28  1  0
  9 29  1  0
 10 30  1  0
 11 31  1  0
 14 32  1  0
 14 33  1  0
 16 34  1  0
 18 35  1  0
 18 36  1  0
 26 37  1  0
 26 38  1  0
 26 39  1  0
M  END
$$$$
confid_4
     RDKit          3D

 39 42  0  0  0  0  0  0  0  0999 V2000
   24.4800   26.1000   36.1300 N   0  0  0  0  0  0  0  0  0  0  0  0
   25.2500   26.2500   34.9900 C   0  0  0  0  0  0  0  0  0  0  0  0
   24.7400   25.7600   33.9900 O   0  0  0  0  0  0  0  0  0  0  0  0
   26.5900   26.8900   34.9600 C   0  0  0  0  0  0  0  0  0  0  0  0
   27.0600   27.2400   36.1600 N   0  0  0  0  0  0  0  0  0  0  0  0
   28.3000   27.7100   36.2400 N   0  0  0  0  0  0  0  0  0  0  0  0
   29.0500   27.9600   35.1500 C   0  0  0  0  0  0  0  0  0  0  0  0
   30.3400   28.4900   35.2600 C   0  0  0  0  0  0  0  0  0  0  0  0
   31.1100   28.8200   34.1400 C   0  0  0  0  0  0  0  0  0  0  0  0
   30.5200   28.6700   32.8800 C   0  0  0  0  0  0  0  0  0  0  0  0
   29.2900   28.0200   32.7700 C   0  0  0  0  0  0  0  0  0  0  0  0
   28.5200   27.7100   33.8900 C   0  0  0  0  0  0  0  0  0  0  0  0
   27.2700   27.0800   33.7600 C   0  0  0  0  0  0  0  0  0  0  0  0
   26.7500   26.8800   32.4900 N   0  0  0  0  0  0  0  0  0  0  0  0
   23.0438   26.0240   36.1524 C   0  0  0  0  0  0  0  0  0  0  0  0
   22.3045   25.6846   37.2941 C   0  0  0  0  0  0  0  0  0  0  0  0
   20.9399   25.7572   37.0355 C   0  0  0  0  0  0  0  0  0  0  0  0
   19.7074   25.5701   37.8676 C   0  0  0  0  0  0  0  0  0  0  0  0
   18.6235   25.9033   36.9217 N   0  0  0  0  0  0  0  0  0  0  0  0
   19.2085   26.2536   35.6622 C   0  0  0  0  0  0  0  0  0  0  0  0
   18.5701   26.6107   34.6371 O   0  0  0  0  0  0  0  0  0  0  0  0
   20.6318   26.1418   35.7789 C   0  0  0  0  0  0  0  0  0  0  0  0
   21.9991   26.4454   34.8613 S   0  0  0  0  0  0  0  0  0  0  0  0
   17.2196   25.8862   37.2246 C   0  0  0  0  0  0  0  0  0  0  0  0
   16.3781   26.1952   36.3385 O   0  0  0  0  0  0  0  0  0  0  0  0
   16.7381   25.5008   38.5879 C   0  0  0  0  0  0  0  0  0  0  0  0
   24.9686   26.0724   37.0531 H   0  0  0  0  0  0  0  0  0  0  0  0
   30.7582   28.6623   36.2441 H   0  0  0  0  0  0  0  0  0  0  0  0
   32.0994   29.2455   34.2469 H   0  0  0  0  0  0  0  0  0  0  0  0
   31.0715   28.9442   31.9898 H   0  0  0  0  0  0  0  0  0  0  0  0
   28.9437   27.8129   31.7669 H   0  0  0  0  0  0  0  0  0  0  0  0
   26.3613   25.9530   32.2111 H   0  0  0  0  0  0  0  0  0  0  0  0
   26.7154   27.6567   31.7927 H   0  0  0  0  0  0  0  0  0  0  0  0
   22.7330   25.4198   38.2515 H   0  0  0  0  0  0  0  0  0  0  0  0
   19.6219   24.5156   38.2054 H   0  0  0  0  0  0  0  0  0  0  0  0
   19.7070   26.2752   38.7255 H   0  0  0  0  0  0  0  0  0  0  0  0
   15.6297   25.5519   38.6402 H   0  0  0  0  0  0  0  0  0  0  0  0
   17.1629   26.1933   39.3440 H   0  0  0  0  0  0  0  0  0  0  0  0
   17.0588   24.4635   38.8175 H   0  0  0  0  0  0  0  0  0  0  0  0
  1  2  1  0
  2  3  2  0
  2  4  1  0
  4  5  2  0
  5  6  1  0
  6  7  2  0
  7  8  1  0
  8  9  2  0
  9 10  1  0
 10 11  2  0
 11 12  1  0
 12 13  2  0
 13 14  1  0
  1 15  1  0
 15 16  2  0
 16 17  1  0
 17 18  1  0
 18 19  1  0
 19 20  1  0
 20 21  2  0
 20 22  1  0
 22 23  1  0
 19 24  1  0
 24 25  2  0
 24 26  1  0
 13  4  1  0
 23 15  1  0
 12  7  1  0
 22 17  2  0
  1 27  1  0
  8 28  1  0
  9 29  1  0
 10 30  1  0
 11 31  1  0
 14 32  1  0
 14 33  1  0
 16 34  1  0
 18 35  1  0
 18 36  1  0
 26 37  1  0
 26 38  1  0
 26 39  1  0
M  END
$$$$
confid_5
     RDKit          3D

 39 42  0  0  0  0  0  0  0  0999 V2000
   24.4800   26.1000   36.1300 N   0  0  0  0  0  0  0  0  0  0  0  0
   25.2500   26.2500   34.9900 C   0  0  0  0  0  0  0  0  0  0  0  0
   24.7400   25.7600   33.9900 O   0  0  0  0  0  0  0  0  0  0  0  0
   26.5900   26.8900   34.9600 C   0  0  0  0  0  0  0  0  0  0  0  0
   27.0600   27.2400   36.1600 N   0  0  0  0  0  0  0  0  0  0  0  0
   28.3000   27.7100   36.2400 N   0  0  0  0  0  0  0  0  0  0  0  0
   29.0500   27.9600   35.1500 C   0  0  0  0  0  0  0  0  0  0  0  0
   30.3400   28.4900   35.2600 C   0  0  0  0  0  0  0  0  0  0  0  0
   31.1100   28.8200   34.1400 C   0  0  0  0  0  0  0  0  0  0  0  0
   30.5200   28.6700   32.8800 C   0  0  0  0  0  0  0  0  0  0  0  0
   29.2900   28.0200   32.7700 C   0  0  0  0  0  0  0  0  0  0  0  0
   28.5200   27.7100   33.8900 C   0  0  0  0  0  0  0  0  0  0  0  0
   27.2700   27.0800   33.7600 C   0  0  0  0  0  0  0  0  0  0  0  0
   26.7500   26.8800   32.4900 N   0  0  0  0  0  0  0  0  0  0  0  0
   23.0442   26.0354   36.1531 C   0  0  0  0  0  0  0  0  0  0  0  0
   22.1817   26.4875   35.1385 C   0  0  0  0  0  0  0  0  0  0  0  0
   20.8541   26.3337   35.5234 C   0  0  0  0  0  0  0  0  0  0  0  0
   19.5398   26.7126   34.9106 C   0  0  0  0  0  0  0  0  0  0  0  0
   18.5723   26.3448   35.9638 N   0  0  0  0  0  0  0  0  0  0  0  0
   19.2936   25.8107   37.0797 C   0  0  0  0  0  0  0  0  0  0  0  0
   18.7783   25.4232   38.1614 O   0  0  0  0  0  0  0  0  0  0  0  0
   20.6897   25.8142   36.7584 C   0  0  0  0  0  0  0  0  0  0  0  0
   22.1539   25.5087   37.5112 S   0  0  0  0  0  0  0  0  0  0  0  0
   17.1479   26.5101   35.8802 C   0  0  0  0  0  0  0  0  0  0  0  0
   16.4150   26.1748   36.8492 O   0  0  0  0  0  0  0  0  0  0  0  0
   16.5172   27.0790   34.6482 C   0  0  0  0  0  0  0  0  0  0  0  0
   24.9685   26.0414   37.0514 H   0  0  0  0  0  0  0  0  0  0  0  0
   30.7582   28.6623   36.2441 H   0  0  0  0  0  0  0  0  0  0  0  0
   32.0994   29.2455   34.2469 H   0  0  0  0  0  0  0  0  0  0  0  0
   31.0715   28.9443   31.9898 H   0  0  0  0  0  0  0  0  0  0  0  0
   28.9437   27.8129   31.7669 H   0  0  0  0  0  0  0  0  0  0  0  0
   26.3610   25.9531   32.2111 H   0  0  0  0  0  0  0  0  0  0  0  0
   26.7157   27.6566   31.7926 H   0  0  0  0  0  0  0  0  0  0  0  0
   22.4907   26.9355   34.2040 H   0  0  0  0  0  0  0  0  0  0  0  0
   19.3568   26.1233   33.9873 H   0  0  0  0  0  0  0  0  0  0  0  0
   19.5032   27.8048   34.7120 H   0  0  0  0  0  0  0  0  0  0  0  0
   16.9019   28.1047   34.4715 H   0  0  0  0  0  0  0  0  0  0  0  0
   16.7598   26.4385   33.7751 H   0  0  0  0  0  0  0  0  0  0  0  0
   15.4128   27.1253   34.7599 H   0  0  0  0  0  0  0  0  0  0  0  0
  1  2  1  0
  2  3  2  0
  2  4  1  0
  4  5  2  0
  5  6  1  0
  6  7  2  0
  7  8  1  0
  8  9  2  0
  9 10  1  0
 10 11  2  0
 11 12  1  0
 12 13  2  0
 13 14  1  0
  1 15  1  0
 15 16  2  0
 16 17  1  0
 17 18  1  0
 18 19  1  0
 19 20  1  0
 20 21  2  0
 20 22  1  0
 22 23  1  0
 19 24  1  0
 24 25  2  0
 24 26  1  0
 13  4  1  0
 23 15  1  0
 12  7  1  0
 22 17  2  0
  1 27  1  0
  8 28  1  0
  9 29  1  0
 10 30  1  0
 11 31  1  0
 14 32  1  0
 14 33  1  0
 16 34  1  0
 18 35  1  0
 18 36  1  0
 26 37  1  0
 26 38  1  0
 26 39  1  0
M  END
$$$$
confid_6
     RDKit          3D

 39 42  0  0  0  0  0  0  0  0999 V2000
   24.4800   26.1000   36.1300 N   0  0  0  0  0  0  0  0  0  0  0  0
   25.2500   26.2500   34.9900 C   0  0  0  0  0  0  0  0  0  0  0  0
   24.7400   25.7600   33.9900 O   0  0  0  0  0  0  0  0  0  0  0  0
   26.5900   26.8900   34.9600 C   0  0  0  0  0  0  0  0  0  0  0  0
   27.0600   27.2400   36.1600 N   0  0  0  0  0  0  0  0  0  0  0  0
   28.3000   27.7100   36.2400 N   0  0  0  0  0  0  0  0  0  0  0  0
   29.0500   27.9600   35.1500 C   0  0  0  0  0  0  0  0  0  0  0  0
   30.3400   28.4900   35.2600 C   0  0  0  0  0  0  0  0  0  0  0  0
   31.1100   28.8200   34.1400 C   0  0  0  0  0  0  0  0  0  0  0  0
   30.5200   28.6700   32.8800 C   0  0  0  0  0  0  0  0  0  0  0  0
   29.2900   28.0200   32.7700 C   0  0  0  0  0  0  0  0  0  0  0  0
   28.5200   27.7100   33.8900 C   0  0  0  0  0  0  0  0  0  0  0  0
   27.2700   27.0800   33.7600 C   0  0  0  0  0  0  0  0  0  0  0  0
   26.7500   26.8800   32.4900 N   0  0  0  0  0  0  0  0  0  0  0  0
   23.5310   25.0436   36.3611 C   0  0  0  0  0  0  0  0  0  0  0  0
   22.6327   25.0332   37.4374 C   0  0  0  0  0  0  0  0  0  0  0  0
   21.8881   23.8585   37.4454 C   0  0  0  0  0  0  0  0  0  0  0  0
   20.8533   23.2836   38.3646 C   0  0  0  0  0  0  0  0  0  0  0  0
   20.5920   21.9573   37.7702 N   0  0  0  0  0  0  0  0  0  0  0  0
   21.4216   21.8044   36.6129 C   0  0  0  0  0  0  0  0  0  0  0  0
   21.4657   20.7822   35.8786 O   0  0  0  0  0  0  0  0  0  0  0  0
   22.1936   22.9999   36.4497 C   0  0  0  0  0  0  0  0  0  0  0  0
   23.4166   23.5859   35.4677 S   0  0  0  0  0  0  0  0  0  0  0  0
   19.6660   20.9846   38.2794 C   0  0  0  0  0  0  0  0  0  0  0  0
   19.5257   19.8779   37.6926 O   0  0  0  0  0  0  0  0  0  0  0  0
   18.8581   21.2696   39.5062 C   0  0  0  0  0  0  0  0  0  0  0  0
   24.6149   26.7915   36.9016 H   0  0  0  0  0  0  0  0  0  0  0  0
   30.7582   28.6623   36.2441 H   0  0  0  0  0  0  0  0  0  0  0  0
   32.0994   29.2455   34.2469 H   0  0  0  0  0  0  0  0  0  0  0  0
   31.0716   28.9442   31.9898 H   0  0  0  0  0  0  0  0  0  0  0  0
   28.9437   27.8129   31.7669 H   0  0  0  0  0  0  0  0  0  0  0  0
   26.3616   25.9529   32.2111 H   0  0  0  0  0  0  0  0  0  0  0  0
   26.7157   27.6566   31.7925 H   0  0  0  0  0  0  0  0  0  0  0  0
   22.5414   25.8207   38.1736 H   0  0  0  0  0  0  0  0  0  0  0  0
   21.2618   23.1770   39.3918 H   0  0  0  0  0  0  0  0  0  0  0  0
   19.9336   23.9059   38.3532 H   0  0  0  0  0  0  0  0  0  0  0  0
   18.2016   20.4077   39.7512 H   0  0  0  0  0  0  0  0  0  0  0  0
   18.2238   22.1642   39.3360 H   0  0  0  0  0  0  0  0  0  0  0  0
   19.5360   21.4569   40.3647 H   0  0  0  0  0  0  0  0  0  0  0  0
  1  2  1  0
  2  3  2  0
  2  4  1  0
  4  5  2  0
  5  6  1  0
  6  7  2  0
  7  8  1  0
  8  9  2  0
  9 10  1  0
 10 11  2  0
 11 12  1  0
 12 13  2  0
 13 14  1  0
  1 15  1  0
 15 16  2  0
 16 17  1  0
 17 18  1  0
 18 19  1  0
 19 20  1  0
 20 21  2  0
 20 22  1  0
 22 23  1  0
 19 24  1  0
 24 25  2  0
 24 26  1  0
 13  4  1  0
 23 15  1  0
 12  7  1  0
 22 17  2  0
  1 27  1  0
  8 28  1  0
  9 29  1  0
 10 30  1  0
 11 31  1  0
 14 32  1  0
 14 33  1  0
 16 34  1  0
 18 35  1  0
 18 36  1  0
 26 37  1  0
 26 38  1  0
 26 39  1  0
M  END
$$$$
