confid_0
     RDKit          3D

 46 49  0  0  0  0  0  0  0  0999 V2000
   24.4800   26.1000   36.1300 N   0  0  0  0  0  0  0  0  0  0  0  0
   25.2500   26.2500   34.9900 C   0  0  0  0  0  0  0  0  0  0  0  0
   24.7400   25.7600   33.9900 O   0  0  0  0  0  0  0  0  0  0  0  0
   26.5900   26.8900   34.9600 C   0  0  0  0  0  0  0  0  0  0  0  0
   27.0600   27.2400   36.1600 N   0  0  0  0  0  0  0  0  0  0  0  0
   28.3000   27.7100   36.2400 N   0  0  0  0  0  0  0  0  0  0  0  0
   29.0500   27.9600   35.1500 C   0  0  0  0  0  0  0  0  0  0  0  0
   30.3400   28.4900   35.2600 C   0  0  0  0  0  0  0  0  0  0  0  0
   31.1100   28.8200   34.1400 C   0  0  0  0  0  0  0  0  0  0  0  0
   30.5200   28.6700   32.8800 C   0  0  0  0  0  0  0  0  0  0  0  0
   29.2900   28.0200   32.7700 C   0  0  0  0  0  0  0  0  0  0  0  0
   28.5200   27.7100   33.8900 C   0  0  0  0  0  0  0  0  0  0  0  0
   27.2700   27.0800   33.7600 C   0  0  0  0  0  0  0  0  0  0  0  0
   26.7500   26.8800   32.4900 N   0  0  0  0  0  0  0  0  0  0  0  0
   23.0406   26.0197   36.1501 C   0  0  0  0  0  0  0  0  0  0  0  0
   22.2576   26.6881   35.1974 C   0  0  0  0  0  0  0  0  0  0  0  0
   20.8654   26.6241   35.2560 C   0  0  0  0  0  0  0  0  0  0  0  0
   20.1068   27.2874   34.2834 O   0  0  0  0  0  0  0  0  0  0  0  0
   18.6895   27.4200   34.3878 C   0  0  0  0  0  0  0  0  0  0  0  0
   18.0880   26.1568   35.0023 C   0  0  0  0  0  0  0  0  0  0  0  0
   18.7725   25.8604   36.2689 N   0  0  0  0  0  0  0  0  0  0  0  0
   20.2213   25.8924   36.2736 C   0  0  0  0  0  0  0  0  0  0  0  0
   21.0021   25.2102   37.2374 C   0  0  0  0  0  0  0  0  0  0  0  0
   22.4077   25.3011   37.1726 C   0  0  0  0  0  0  0  0  0  0  0  0
   20.3696   24.4390   38.2253 O   0  0  0  0  0  0  0  0  0  0  0  0
   21.0434   23.7076   39.2445 C   0  0  0  0  0  0  0  0  0  0  0  0
   17.9934   25.7439   37.5069 C   0  0  0  0  0  0  0  0  0  0  0  0
   24.9784   26.0121   37.0445 H   0  0  0  0  0  0  0  0  0  0  0  0
   30.7582   28.6623   36.2441 H   0  0  0  0  0  0  0  0  0  0  0  0
   32.0994   29.2455   34.2469 H   0  0  0  0  0  0  0  0  0  0  0  0
   31.0716   28.9442   31.9898 H   0  0  0  0  0  0  0  0  0  0  0  0
   28.9437   27.8129   31.7669 H   0  0  0  0  0  0  0  0  0  0  0  0
   26.7153   27.6568   31.7927 H   0  0  0  0  0  0  0  0  0  0  0  0
   26.3613   25.9530   32.2111 H   0  0  0  0  0  0  0  0  0  0  0  0
   22.7223   27.2810   34.4202 H   0  0  0  0  0  0  0  0  0  0  0  0
   18.2597   27.5976   33.3797 H   0  0  0  0  0  0  0  0  0  0  0  0
   18.4527   28.2921   35.0346 H   0  0  0  0  0  0  0  0  0  0  0  0
   18.2339   25.3048   34.3038 H   0  0  0  0  0  0  0  0  0  0  0  0
   16.9951   26.2986   35.1439 H   0  0  0  0  0  0  0  0  0  0  0  0
   23.0243   24.7962   37.9037 H   0  0  0  0  0  0  0  0  0  0  0  0
   20.2914   23.1981   39.8810 H   0  0  0  0  0  0  0  0  0  0  0  0
   21.6376   24.3972   39.8805 H   0  0  0  0  0  0  0  0  0  0  0  0
   21.7032   22.9385   38.7903 H   0  0  0  0  0  0  0  0  0  0  0  0
   18.4654   26.3447   38.3131 H   0  0  0  0  0  0  0  0  0  0  0  0
   16.9584   26.1223   37.3730 H   0  0  0  0  0  0  0  0  0  0  0  0
   17.9272   24.6796   37.8127 H   0  0  0  0  0  0  0  0  0  0  0  0
  1  2  1  0
  2  3  2  0
  2  4  1  0
  4  5  2  0
  5  6  1  0
  6  7  2  0
  7  8  1  0
  8  9  2  0
  9 10  1  0
 10 11  2  0
 11 12  1  0
 12 13  2  0
 13 14  1  0
  1 15  1  0
 15 16  2  0
 16 17  1  0
 17 18  1  0
 18 19  1  0
 19 20  1  0
 20 21  1  0
 21 22  1  0
 22 23  1  0
 23 24  2  0
 23 25  1  0
 25 26  1  0
 21 27  1  0
 13  4  1  0
 24 15  1  0
 12  7  1  0
 22 17  2  0
  1 28  1  0
  8 29  1  0
  9 30  1  0
 10 31  1  0
 11 32  1  0
 14 33  1  0
 14 34  1  0
 16 35  1  0
 19 36  1  0
 19 37  1  0
 20 38  1  0
 20 39  1  0
 24 40  1  0
 26 41  1  0
 26 42  1  0
 26 43  1  0
 27 44  1  0
 27 45  1  0
 27 46  1  0
M  END
$$$$
confid_1
     RDKit          3D

 46 49  0  0  0  0  0  0  0  0999 V2000
   24.4800   26.1000   36.1300 N   0  0  0  0  0  0  0  0  0  0  0  0
   25.2500   26.2500   34.9900 C   0  0  0  0  0  0  0  0  0  0  0  0
   24.7400   25.7600   33.9900 O   0  0  0  0  0  0  0  0  0  0  0  0
   26.5900   26.8900   34.9600 C   0  0  0  0  0  0  0  0  0  0  0  0
   27.0600   27.2400   36.1600 N   0  0  0  0  0  0  0  0  0  0  0  0
   28.3000   27.7100   36.2400 N   0  0  0  0  0  0  0  0  0  0  0  0
   29.0500   27.9600   35.1500 C   0  0  0  0  0  0  0  0  0  0  0  0
   30.3400   28.4900   35.2600 C   0  0  0  0  0  0  0  0  0  0  0  0
   31.1100   28.8200   34.1400 C   0  0  0  0  0  0  0  0  0  0  0  0
   30.5200   28.6700   32.8800 C   0  0  0  0  0  0  0  0  0  0  0  0
   29.2900   28.0200   32.7700 C   0  0  0  0  0  0  0  0  0  0  0  0
   28.5200   27.7100   33.8900 C   0  0  0  0  0  0  0  0  0  0  0  0
   27.2700   27.0800   33.7600 C   0  0  0  0  0  0  0  0  0  0  0  0
   26.7500   26.8800   32.4900 N   0  0  0  0  0  0  0  0  0  0  0  0
   23.5265   25.0424   36.3540 C   0  0  0  0  0  0  0  0  0  0  0  0
   22.4033   25.2917   37.1480 C   0  0  0  0  0  0  0  0  0  0  0  0
   21.4792   24.2797   37.4078 C   0  0  0  0  0  0  0  0  0  0  0  0
   20.3512   24.5640   38.1876 O   0  0  0  0  0  0  0  0  0  0  0  0
   19.4686   23.5399   38.6450 C   0  0  0  0  0  0  0  0  0  0  0  0
   19.3252   22.4553   37.5782 C   0  0  0  0  0  0  0  0  0  0  0  0
   20.6602   21.9846   37.1824 N   0  0  0  0  0  0  0  0  0  0  0  0
   21.6641   22.9855   36.8817 C   0  0  0  0  0  0  0  0  0  0  0  0
   22.7967   22.7203   36.0747 C   0  0  0  0  0  0  0  0  0  0  0  0
   23.7284   23.7517   35.8369 C   0  0  0  0  0  0  0  0  0  0  0  0
   22.9648   21.4460   35.5100 O   0  0  0  0  0  0  0  0  0  0  0  0
   24.0540   21.0598   34.6779 C   0  0  0  0  0  0  0  0  0  0  0  0
   20.9925   20.5599   37.2957 C   0  0  0  0  0  0  0  0  0  0  0  0
   24.5715   26.8305   36.8720 H   0  0  0  0  0  0  0  0  0  0  0  0
   30.7580   28.6629   36.2441 H   0  0  0  0  0  0  0  0  0  0  0  0
   32.0983   29.2479   34.2470 H   0  0  0  0  0  0  0  0  0  0  0  0
   31.0669   28.9543   31.9901 H   0  0  0  0  0  0  0  0  0  0  0  0
   28.9258   27.8587   31.7656 H   0  0  0  0  0  0  0  0  0  0  0  0
   25.7672   27.1501   32.2658 H   0  0  0  0  0  0  0  0  0  0  0  0
   27.2968   26.3785   31.7554 H   0  0  0  0  0  0  0  0  0  0  0  0
   22.2416   26.2793   37.5621 H   0  0  0  0  0  0  0  0  0  0  0  0
   19.8834   23.0902   39.5728 H   0  0  0  0  0  0  0  0  0  0  0  0
   18.4773   23.9827   38.8768 H   0  0  0  0  0  0  0  0  0  0  0  0
   18.6935   21.6303   37.9720 H   0  0  0  0  0  0  0  0  0  0  0  0
   18.8133   22.8822   36.6888 H   0  0  0  0  0  0  0  0  0  0  0  0
   24.6190   23.5533   35.2580 H   0  0  0  0  0  0  0  0  0  0  0  0
   24.0790   21.6897   33.7637 H   0  0  0  0  0  0  0  0  0  0  0  0
   25.0108   21.1510   35.2342 H   0  0  0  0  0  0  0  0  0  0  0  0
   23.9200   20.0011   34.3754 H   0  0  0  0  0  0  0  0  0  0  0  0
   21.9727   20.4355   37.8033 H   0  0  0  0  0  0  0  0  0  0  0  0
   20.2357   20.0124   37.8956 H   0  0  0  0  0  0  0  0  0  0  0  0
   21.0233   20.0979   36.2875 H   0  0  0  0  0  0  0  0  0  0  0  0
  1  2  1  0
  2  3  2  0
  2  4  1  0
  4  5  2  0
  5  6  1  0
  6  7  2  0
  7  8  1  0
  8  9  2  0
  9 10  1  0
 10 11  2  0
 11 12  1  0
 12 13  2  0
 13 14  1  0
  1 15  1  0
 15 16  2  0
 16 17  1  0
 17 18  1  0
 18 19  1  0
 19 20  1  0
 20 21  1  0
 21 22  1  0
 22 23  1  0
 23 24  2  0
 23 25  1  0
 25 26  1  0
 21 27  1  0
 13  4  1  0
 24 15  1  0
 12  7  1  0
 22 17  2  0
  1 28  1  0
  8 29  1  0
  9 30  1  0
 10 31  1  0
 11 32  1  0
 14 33  1  0
 14 34  1  0
 16 35  1  0
 19 36  1  0
 19 37  1  0
 20 38  1  0
 20 39  1  0
 24 40  1  0
 26 41  1  0
 26 42  1  0
 26 43  1  0
 27 44  1  0
 27 45  1  0
 27 46  1  0
M  END
$$$$
confid_2
     RDKit          3D

 46 49  0  0  0  0  0  0  0  0999 V2000
   24.4800   26.1000   36.1300 N   0  0  0  0  0  0  0  0  0  0  0  0
   25.2500   26.2500   34.9900 C   0  0  0  0  0  0  0  0  0  0  0  0
   24.7400   25.7600   33.9900 O   0  0  0  0  0  0  0  0  0  0  0  0
   26.5900   26.8900   34.9600 C   0  0  0  0  0  0  0  0  0  0  0  0
   27.0600   27.2400   36.1600 N   0  0  0  0  0  0  0  0  0  0  0  0
   28.3000   27.7100   36.2400 N   0  0  0  0  0  0  0  0  0  0  0  0
   29.0500   27.9600   35.1500 C   0  0  0  0  0  0  0  0  0  0  0  0
   30.3400   28.4900   35.2600 C   0  0  0  0  0  0  0  0  0  0  0  0
   31.1100   28.8200   34.1400 C   0  0  0  0  0  0  0  0  0  0  0  0
   30.5200   28.6700   32.8800 C   0  0  0  0  0  0  0  0  0  0  0  0
   29.2900   28.0200   32.7700 C   0  0  0  0  0  0  0  0  0  0  0  0
   28.5200   27.7100   33.8900 C   0  0  0  0  0  0  0  0  0  0  0  0
   27.2700   27.0800   33.7600 C   0  0  0  0  0  0  0  0  0  0  0  0
   26.7500   26.8800   32.4900 N   0  0  0  0  0  0  0  0  0  0  0  0
   23.5245   25.0438   36.3525 C   0  0  0  0  0  0  0  0  0  0  0  0
   22.4096   25.2892   37.1597 C   0  0  0  0  0  0  0  0  0  0  0  0
   21.4750   24.2829   37.4030 C   0  0  0  0  0  0  0  0  0  0  0  0
   20.3633   24.5582   38.2091 O   0  0  0  0  0  0  0  0  0  0  0  0
   19.2780   23.6406   38.3418 C   0  0  0  0  0  0  0  0  0  0  0  0
   19.8009   22.2047   38.3416 C   0  0  0  0  0  0  0  0  0  0  0  0
   20.6430   21.9949   37.1554 N   0  0  0  0  0  0  0  0  0  0  0  0
   21.6486   22.9948   36.8591 C   0  0  0  0  0  0  0  0  0  0  0  0
   22.7998   22.7189   36.0833 C   0  0  0  0  0  0  0  0  0  0  0  0
   23.7252   23.7533   35.8341 C   0  0  0  0  0  0  0  0  0  0  0  0
   23.0152   21.4189   35.5989 O   0  0  0  0  0  0  0  0  0  0  0  0
   24.1280   21.0182   34.8059 C   0  0  0  0  0  0  0  0  0  0  0  0
   20.3187   20.9179   36.2130 C   0  0  0  0  0  0  0  0  0  0  0  0
   24.5736   26.8290   36.8732 H   0  0  0  0  0  0  0  0  0  0  0  0
   30.7582   28.6623   36.2441 H   0  0  0  0  0  0  0  0  0  0  0  0
   32.0994   29.2455   34.2469 H   0  0  0  0  0  0  0  0  0  0  0  0
   31.0716   28.9442   31.9898 H   0  0  0  0  0  0  0  0  0  0  0  0
   28.9437   27.8128   31.7669 H   0  0  0  0  0  0  0  0  0  0  0  0
   26.7157   27.6566   31.7925 H   0  0  0  0  0  0  0  0  0  0  0  0
   26.3616   25.9528   32.2112 H   0  0  0  0  0  0  0  0  0  0  0  0
   22.2579   26.2718   37.5893 H   0  0  0  0  0  0  0  0  0  0  0  0
   18.5798   23.7775   37.4881 H   0  0  0  0  0  0  0  0  0  0  0  0
   18.7312   23.8491   39.2853 H   0  0  0  0  0  0  0  0  0  0  0  0
   20.4130   22.0381   39.2542 H   0  0  0  0  0  0  0  0  0  0  0  0
   18.9435   21.4985   38.3723 H   0  0  0  0  0  0  0  0  0  0  0  0
   24.6213   23.5521   35.2647 H   0  0  0  0  0  0  0  0  0  0  0  0
   24.0270   19.9415   34.5593 H   0  0  0  0  0  0  0  0  0  0  0  0
   25.0727   21.1653   35.3708 H   0  0  0  0  0  0  0  0  0  0  0  0
   24.1515   21.5983   33.8592 H   0  0  0  0  0  0  0  0  0  0  0  0
   21.0422   20.0848   36.3282 H   0  0  0  0  0  0  0  0  0  0  0  0
   20.3419   21.3022   35.1711 H   0  0  0  0  0  0  0  0  0  0  0  0
   19.3019   20.5114   36.3952 H   0  0  0  0  0  0  0  0  0  0  0  0
  1  2  1  0
  2  3  2  0
  2  4  1  0
  4  5  2  0
  5  6  1  0
  6  7  2  0
  7  8  1  0
  8  9  2  0
  9 10  1  0
 10 11  2  0
 11 12  1  0
 12 13  2  0
 13 14  1  0
  1 15  1  0
 15 16  2  0
 16 17  1  0
 17 18  1  0
 18 19  1  0
 19 20  1  0
 20 21  1  0
 21 22  1  0
 22 23  1  0
 23 24  2  0
 23 25  1  0
 25 26  1  0
 21 27  1  0
 13  4  1  0
 24 15  1  0
 12  7  1  0
 22 17  2  0
  1 28  1  0
  8 29  1  0
  9 30  1  0
 10 31  1  0
 11 32  1  0
 14 33  1  0
 14 34  1  0
 16 35  1  0
 19 36  1  0
 19 37  1  0
 20 38  1  0
 20 39  1  0
 24 40  1  0
 26 41  1  0
 26 42  1  0
 26 43  1  0
 27 44  1  0
 27 45  1  0
 27 46  1  0
M  END
$$$$
confid_3
     RDKit          3D

 46 49  0  0  0  0  0  0  0  0999 V2000
   24.4800   26.1000   36.1300 N   0  0  0  0  0  0  0  0  0  0  0  0
   25.2500   26.2500   34.9900 C   0  0  0  0  0  0  0  0  0  0  0  0
   24.7400   25.7600   33.9900 O   0  0  0  0  0  0  0  0  0  0  0  0
   26.5900   26.8900   34.9600 C   0  0  0  0  0  0  0  0  0  0  0  0
   27.0600   27.2400   36.1600 N   0  0  0  0  0  0  0  0  0  0  0  0
   28.3000   27.7100   36.2400 N   0  0  0  0  0  0  0  0  0  0  0  0
   29.0500   27.9600   35.1500 C   0  0  0  0  0  0  0  0  0  0  0  0
   30.3400   28.4900   35.2600 C   0  0  0  0  0  0  0  0  0  0  0  0
   31.1100   28.8200   34.1400 C   0  0  0  0  0  0  0  0  0  0  0  0
   30.5200   28.6700   32.8800 C   0  0  0  0  0  0  0  0  0  0  0  0
   29.2900   28.0200   32.7700 C   0  0  0  0  0  0  0  0  0  0  0  0
   28.5200   27.7100   33.8900 C   0  0  0  0  0  0  0  0  0  0  0  0
   27.2700   27.0800   33.7600 C   0  0  0  0  0  0  0  0  0  0  0  0
   26.7500   26.8800   32.4900 N   0  0  0  0  0  0  0  0  0  0  0  0
   23.0405   26.0247   36.1494 C   0  0  0  0  0  0  0  0  0  0  0  0
   22.4075   25.3004   37.1640 C   0  0  0  0  0  0  0  0  0  0  0  0
   21.0158   25.2337   37.2260 C   0  0  0  0  0  0  0  0  0  0  0  0
   20.4093   24.4823   38.2403 O   0  0  0  0  0  0  0  0  0  0  0  0
   19.0018   24.5216   38.4741 C   0  0  0  0  0  0  0  0  0  0  0  0
   18.2523   24.6381   37.1476 C   0  0  0  0  0  0  0  0  0  0  0  0
   18.7818   25.7810   36.3900 N   0  0  0  0  0  0  0  0  0  0  0  0
   20.2212   25.9006   36.2723 C   0  0  0  0  0  0  0  0  0  0  0  0
   20.8495   26.6355   35.2382 C   0  0  0  0  0  0  0  0  0  0  0  0
   22.2574   26.7051   35.2015 C   0  0  0  0  0  0  0  0  0  0  0  0
   20.0660   27.2650   34.2579 O   0  0  0  0  0  0  0  0  0  0  0  0
   20.5785   28.0240   33.1674 C   0  0  0  0  0  0  0  0  0  0  0  0
   17.8749   26.8508   35.9585 C   0  0  0  0  0  0  0  0  0  0  0  0
   24.9781   26.0059   37.0440 H   0  0  0  0  0  0  0  0  0  0  0  0
   30.7582   28.6623   36.2441 H   0  0  0  0  0  0  0  0  0  0  0  0
   32.0994   29.2455   34.2469 H   0  0  0  0  0  0  0  0  0  0  0  0
   31.0715   28.9442   31.9898 H   0  0  0  0  0  0  0  0  0  0  0  0
   28.9437   27.8129   31.7669 H   0  0  0  0  0  0  0  0  0  0  0  0
   26.7152   27.6568   31.7928 H   0  0  0  0  0  0  0  0  0  0  0  0
   26.3611   25.9531   32.2111 H   0  0  0  0  0  0  0  0  0  0  0  0
   22.9989   24.7796   37.9071 H   0  0  0  0  0  0  0  0  0  0  0  0
   18.7633   25.4017   39.1095 H   0  0  0  0  0  0  0  0  0  0  0  0
   18.6904   23.6008   39.0105 H   0  0  0  0  0  0  0  0  0  0  0  0
   17.1636   24.7392   37.3455 H   0  0  0  0  0  0  0  0  0  0  0  0
   18.4069   23.7093   36.5571 H   0  0  0  0  0  0  0  0  0  0  0  0
   22.7499   27.2959   34.4426 H   0  0  0  0  0  0  0  0  0  0  0  0
   21.2257   27.3866   32.5285 H   0  0  0  0  0  0  0  0  0  0  0  0
   19.7311   28.3947   32.5552 H   0  0  0  0  0  0  0  0  0  0  0  0
   21.1513   28.8971   33.5453 H   0  0  0  0  0  0  0  0  0  0  0  0
   17.7019   26.7811   34.8649 H   0  0  0  0  0  0  0  0  0  0  0  0
   16.8886   26.7756   36.4625 H   0  0  0  0  0  0  0  0  0  0  0  0
   18.3047   27.8424   36.2152 H   0  0  0  0  0  0  0  0  0  0  0  0
  1  2  1  0
  2  3  2  0
  2  4  1  0
  4  5  2  0
  5  6  1  0
  6  7  2  0
  7  8  1  0
  8  9  2  0
  9 10  1  0
 10 11  2  0
 11 12  1  0
 12 13  2  0
 13 14  1  0
  1 15  1  0
 15 16  2  0
 16 17  1  0
 17 18  1  0
 18 19  1  0
 19 20  1  0
 20 21  1  0
 21 22  1  0
 22 23  1  0
 23 24  2  0
 23 25  1  0
 25 26  1  0
 21 27  1  0
 13  4  1  0
 24 15  1  0
 12  7  1  0
 22 17  2  0
  1 28  1  0
  8 29  1  0
  9 30  1  0
 10 31  1  0
 11 32  1  0
 14 33  1  0
 14 34  1  0
 16 35  1  0
 19 36  1  0
 19 37  1  0
 20 38  1  0
 20 39  1  0
 24 40  1  0
 26 41  1  0
 26 42  1  0
 26 43  1  0
 27 44  1  0
 27 45  1  0
 27 46  1  0
M  END
$$$$
confid_4
     RDKit          3D

 46 49  0  0  0  0  0  0  0  0999 V2000
   24.4800   26.1000   36.1300 N   0  0  0  0  0  0  0  0  0  0  0  0
   25.2500   26.2500   34.9900 C   0  0  0  0  0  0  0  0  0  0  0  0
   24.7400   25.7600   33.9900 O   0  0  0  0  0  0  0  0  0  0  0  0
   26.5900   26.8900   34.9600 C   0  0  0  0  0  0  0  0  0  0  0  0
   27.0600   27.2400   36.1600 N   0  0  0  0  0  0  0  0  0  0  0  0
   28.3000   27.7100   36.2400 N   0  0  0  0  0  0  0  0  0  0  0  0
   29.0500   27.9600   35.1500 C   0  0  0  0  0  0  0  0  0  0  0  0
   30.3400   28.4900   35.2600 C   0  0  0  0  0  0  0  0  0  0  0  0
   31.1100   28.8200   34.1400 C   0  0  0  0  0  0  0  0  0  0  0  0
   30.5200   28.6700   32.8800 C   0  0  0  0  0  0  0  0  0  0  0  0
   29.2900   28.0200   32.7700 C   0  0  0  0  0  0  0  0  0  0  0  0
   28.5200   27.7100   33.8900 C   0  0  0  0  0  0  0  0  0  0  0  0
   27.2700   27.0800   33.7600 C   0  0  0  0  0  0  0  0  0  0  0  0
   26.7500   26.8800   32.4900 N   0  0  0  0  0  0  0  0  0  0  0  0
   23.5242   25.0442   36.3538 C   0  0  0  0  0  0  0  0  0  0  0  0
   23.7192   23.7586   35.8284 C   0  0  0  0  0  0  0  0  0  0  0  0
   22.7992   22.7425   36.0868 C   0  0  0  0  0  0  0  0  0  0  0  0
   23.0085   21.4716   35.5370 O   0  0  0  0  0  0  0  0  0  0  0  0
   22.2157   20.3447   35.9093 C   0  0  0  0  0  0  0  0  0  0  0  0
   20.7684   20.7754   36.1433 C   0  0  0  0  0  0  0  0  0  0  0  0
   20.7428   21.8887   37.1028 N   0  0  0  0  0  0  0  0  0  0  0  0
   21.6622   22.9870   36.8828 C   0  0  0  0  0  0  0  0  0  0  0  0
   21.4541   24.2822   37.4149 C   0  0  0  0  0  0  0  0  0  0  0  0
   22.4042   25.2918   37.1579 C   0  0  0  0  0  0  0  0  0  0  0  0
   20.2997   24.5471   38.1686 O   0  0  0  0  0  0  0  0  0  0  0  0
   19.9788   25.8051   38.7537 C   0  0  0  0  0  0  0  0  0  0  0  0
   19.9551   21.7690   38.3350 C   0  0  0  0  0  0  0  0  0  0  0  0
   24.5752   26.8283   36.8737 H   0  0  0  0  0  0  0  0  0  0  0  0
   30.7580   28.6629   36.2441 H   0  0  0  0  0  0  0  0  0  0  0  0
   32.0983   29.2479   34.2470 H   0  0  0  0  0  0  0  0  0  0  0  0
   31.0669   28.9543   31.9901 H   0  0  0  0  0  0  0  0  0  0  0  0
   28.9258   27.8587   31.7656 H   0  0  0  0  0  0  0  0  0  0  0  0
   25.7672   27.1502   32.2658 H   0  0  0  0  0  0  0  0  0  0  0  0
   27.2968   26.3786   31.7554 H   0  0  0  0  0  0  0  0  0  0  0  0
   24.5973   23.5326   35.2373 H   0  0  0  0  0  0  0  0  0  0  0  0
   22.6243   19.9058   36.8449 H   0  0  0  0  0  0  0  0  0  0  0  0
   22.2624   19.5787   35.1071 H   0  0  0  0  0  0  0  0  0  0  0  0
   20.3279   21.1162   35.1814 H   0  0  0  0  0  0  0  0  0  0  0  0
   20.1766   19.9054   36.5003 H   0  0  0  0  0  0  0  0  0  0  0  0
   22.2713   26.2861   37.5619 H   0  0  0  0  0  0  0  0  0  0  0  0
   20.7641   26.0993   39.4817 H   0  0  0  0  0  0  0  0  0  0  0  0
   19.0125   25.7178   39.2911 H   0  0  0  0  0  0  0  0  0  0  0  0
   19.8768   26.5791   37.9640 H   0  0  0  0  0  0  0  0  0  0  0  0
   20.5665   22.0756   39.2103 H   0  0  0  0  0  0  0  0  0  0  0  0
   19.0456   22.4003   38.2646 H   0  0  0  0  0  0  0  0  0  0  0  0
   19.6279   20.7225   38.5084 H   0  0  0  0  0  0  0  0  0  0  0  0
  1  2  1  0
  2  3  2  0
  2  4  1  0
  4  5  2  0
  5  6  1  0
  6  7  2  0
  7  8  1  0
  8  9  2  0
  9 10  1  0
 10 11  2  0
 11 12  1  0
 12 13  2  0
 13 14  1  0
  1 15  1  0
 15 16  2  0
 16 17  1  0
 17 18  1  0
 18 19  1  0
 19 20  1  0
 20 21  1  0
 21 22  1  0
 22 23  1  0
 23 24  2  0
 23 25  1  0
 25 26  1  0
 21 27  1  0
 13  4  1  0
 24 15  1  0
 12  7  1  0
 22 17  2  0
  1 28  1  0
  8 29  1  0
  9 30  1  0
 10 31  1  0
 11 32  1  0
 14 33  1  0
 14 34  1  0
 16 35  1  0
 19 36  1  0
 19 37  1  0
 20 38  1  0
 20 39  1  0
 24 40  1  0
 26 41  1  0
 26 42  1  0
 26 43  1  0
 27 44  1  0
 27 45  1  0
 27 46  1  0
M  END
$$$$
confid_5
     RDKit          3D

 46 49  0  0  0  0  0  0  0  0999 V2000
   24.4800   26.1000   36.1300 N   0  0  0  0  0  0  0  0  0  0  0  0
   25.2500   26.2500   34.9900 C   0  0  0  0  0  0  0  0  0  0  0  0
   24.7400   25.7600   33.9900 O   0  0  0  0  0  0  0  0  0  0  0  0
   26.5900   26.8900   34.9600 C   0  0  0  0  0  0  0  0  0  0  0  0
   27.0600   27.2400   36.1600 N   0  0  0  0  0  0  0  0  0  0  0  0
   28.3000   27.7100   36.2400 N   0  0  0  0  0  0  0  0  0  0  0  0
   29.0500   27.9600   35.1500 C   0  0  0  0  0  0  0  0  0  0  0  0
   30.3400   28.4900   35.2600 C   0  0  0  0  0  0  0  0  0  0  0  0
   31.1100   28.8200   34.1400 C   0  0  0  0  0  0  0  0  0  0  0  0
   30.5200   28.6700   32.8800 C   0  0  0  0  0  0  0  0  0  0  0  0
   29.2900   28.0200   32.7700 C   0  0  0  0  0  0  0  0  0  0  0  0
   28.5200   27.7100   33.8900 C   0  0  0  0  0  0  0  0  0  0  0  0
   27.2700   27.0800   33.7600 C   0  0  0  0  0  0  0  0  0  0  0  0
   26.7500   26.8800   32.4900 N   0  0  0  0  0  0  0  0  0  0  0  0
   23.0407   26.0195   36.1487 C   0  0  0  0  0  0  0  0  0  0  0  0
   22.4089   25.3066   37.1722 C   0  0  0  0  0  0  0  0  0  0  0  0
   21.0176   25.2209   37.2227 C   0  0  0  0  0  0  0  0  0  0  0  0
   20.4113   24.4941   38.2549 O   0  0  0  0  0  0  0  0  0  0  0  0
   19.0131   24.2069   38.2591 C   0  0  0  0  0  0  0  0  0  0  0  0
   18.2321   25.3889   37.6862 C   0  0  0  0  0  0  0  0  0  0  0  0
   18.7839   25.7435   36.3708 N   0  0  0  0  0  0  0  0  0  0  0  0
   20.2227   25.8690   36.2567 C   0  0  0  0  0  0  0  0  0  0  0  0
   20.8482   26.6364   35.2453 C   0  0  0  0  0  0  0  0  0  0  0  0
   22.2563   26.6978   35.2003 C   0  0  0  0  0  0  0  0  0  0  0  0
   20.0602   27.3430   34.3228 O   0  0  0  0  0  0  0  0  0  0  0  0
   20.5687   28.1430   33.2601 C   0  0  0  0  0  0  0  0  0  0  0  0
   17.9081   25.7593   35.1937 C   0  0  0  0  0  0  0  0  0  0  0  0
   24.9780   26.0099   37.0444 H   0  0  0  0  0  0  0  0  0  0  0  0
   30.7582   28.6623   36.2441 H   0  0  0  0  0  0  0  0  0  0  0  0
   32.0994   29.2455   34.2469 H   0  0  0  0  0  0  0  0  0  0  0  0
   31.0715   28.9442   31.9898 H   0  0  0  0  0  0  0  0  0  0  0  0
   28.9437   27.8129   31.7669 H   0  0  0  0  0  0  0  0  0  0  0  0
   26.7152   27.6568   31.7928 H   0  0  0  0  0  0  0  0  0  0  0  0
   26.3611   25.9531   32.2111 H   0  0  0  0  0  0  0  0  0  0  0  0
   23.0008   24.8020   37.9259 H   0  0  0  0  0  0  0  0  0  0  0  0
   18.8252   23.3059   37.6362 H   0  0  0  0  0  0  0  0  0  0  0  0
   18.6822   23.9965   39.2978 H   0  0  0  0  0  0  0  0  0  0  0  0
   17.1540   25.1266   37.6271 H   0  0  0  0  0  0  0  0  0  0  0  0
   18.3344   26.2603   38.3685 H   0  0  0  0  0  0  0  0  0  0  0  0
   22.7476   27.2989   34.4487 H   0  0  0  0  0  0  0  0  0  0  0  0
   21.1742   28.9799   33.6676 H   0  0  0  0  0  0  0  0  0  0  0  0
   19.7182   28.5671   32.6881 H   0  0  0  0  0  0  0  0  0  0  0  0
   21.1830   27.5220   32.5744 H   0  0  0  0  0  0  0  0  0  0  0  0
   16.9372   25.2634   35.4031 H   0  0  0  0  0  0  0  0  0  0  0  0
   18.3870   25.2121   34.3539 H   0  0  0  0  0  0  0  0  0  0  0  0
   17.6961   26.8063   34.8947 H   0  0  0  0  0  0  0  0  0  0  0  0
  1  2  1  0
  2  3  2  0
  2  4  1  0
  4  5  2  0
  5  6  1  0
  6  7  2  0
  7  8  1  0
  8  9  2  0
  9 10  1  0
 10 11  2  0
 11 12  1  0
 12 13  2  0
 13 14  1  0
  1 15  1  0
 15 16  2  0
 16 17  1  0
 17 18  1  0
 18 19  1  0
 19 20  1  0
 20 21  1  0
 21 22  1  0
 22 23  1  0
 23 24  2  0
 23 25  1  0
 25 26  1  0
 21 27  1  0
 13  4  1  0
 24 15  1  0
 12  7  1  0
 22 17  2  0
  1 28  1  0
  8 29  1  0
  9 30  1  0
 10 31  1  0
 11 32  1  0
 14 33  1  0
 14 34  1  0
 16 35  1  0
 19 36  1  0
 19 37  1  0
 20 38  1  0
 20 39  1  0
 24 40  1  0
 26 41  1  0
 26 42  1  0
 26 43  1  0
 27 44  1  0
 27 45  1  0
 27 46  1  0
M  END
$$$$
confid_6
     RDKit          3D

 46 49  0  0  0  0  0  0  0  0999 V2000
   24.4800   26.1000   36.1300 N   0  0  0  0  0  0  0  0  0  0  0  0
   25.2500   26.2500   34.9900 C   0  0  0  0  0  0  0  0  0  0  0  0
   24.7400   25.7600   33.9900 O   0  0  0  0  0  0  0  0  0  0  0  0
   26.5900   26.8900   34.9600 C   0  0  0  0  0  0  0  0  0  0  0  0
   27.0600   27.2400   36.1600 N   0  0  0  0  0  0  0  0  0  0  0  0
   28.3000   27.7100   36.2400 N   0  0  0  0  0  0  0  0  0  0  0  0
   29.0500   27.9600   35.1500 C   0  0  0  0  0  0  0  0  0  0  0  0
   30.3400   28.4900   35.2600 C   0  0  0  0  0  0  0  0  0  0  0  0
   31.1100   28.8200   34.1400 C   0  0  0  0  0  0  0  0  0  0  0  0
   30.5200   28.6700   32.8800 C   0  0  0  0  0  0  0  0  0  0  0  0
   29.2900   28.0200   32.7700 C   0  0  0  0  0  0  0  0  0  0  0  0
   28.5200   27.7100   33.8900 C   0  0  0  0  0  0  0  0  0  0  0  0
   27.2700   27.0800   33.7600 C   0  0  0  0  0  0  0  0  0  0  0  0
   26.7500   26.8800   32.4900 N   0  0  0  0  0  0  0  0  0  0  0  0
   23.5219   25.0458   36.3520 C   0  0  0  0  0  0  0  0  0  0  0  0
   23.7168   23.7598   35.8273 C   0  0  0  0  0  0  0  0  0  0  0  0
   22.7858   22.7495   36.0691 C   0  0  0  0  0  0  0  0  0  0  0  0
   23.0022   21.4738   35.5333 O   0  0  0  0  0  0  0  0  0  0  0  0
   22.0050   20.4535   35.5797 C   0  0  0  0  0  0  0  0  0  0  0  0
   21.2313   20.5346   36.8950 C   0  0  0  0  0  0  0  0  0  0  0  0
   20.7225   21.9017   37.0755 N   0  0  0  0  0  0  0  0  0  0  0  0
   21.6459   22.9969   36.8595 C   0  0  0  0  0  0  0  0  0  0  0  0
   21.4656   24.2772   37.4350 C   0  0  0  0  0  0  0  0  0  0  0  0
   22.4091   25.2902   37.1671 C   0  0  0  0  0  0  0  0  0  0  0  0
   20.3686   24.5110   38.2792 O   0  0  0  0  0  0  0  0  0  0  0  0
   20.0803   25.7514   38.9163 C   0  0  0  0  0  0  0  0  0  0  0  0
   19.2846   22.1251   37.2630 C   0  0  0  0  0  0  0  0  0  0  0  0
   24.5771   26.8269   36.8748 H   0  0  0  0  0  0  0  0  0  0  0  0
   30.7582   28.6623   36.2441 H   0  0  0  0  0  0  0  0  0  0  0  0
   32.0994   29.2455   34.2469 H   0  0  0  0  0  0  0  0  0  0  0  0
   31.0716   28.9442   31.9898 H   0  0  0  0  0  0  0  0  0  0  0  0
   28.9437   27.8129   31.7669 H   0  0  0  0  0  0  0  0  0  0  0  0
   26.7156   27.6566   31.7925 H   0  0  0  0  0  0  0  0  0  0  0  0
   26.3616   25.9528   32.2111 H   0  0  0  0  0  0  0  0  0  0  0  0
   24.5983   23.5315   35.2421 H   0  0  0  0  0  0  0  0  0  0  0  0
   22.4889   19.4592   35.4805 H   0  0  0  0  0  0  0  0  0  0  0  0
   21.3019   20.5936   34.7305 H   0  0  0  0  0  0  0  0  0  0  0  0
   21.9139   20.2882   37.7368 H   0  0  0  0  0  0  0  0  0  0  0  0
   20.4119   19.7840   36.8893 H   0  0  0  0  0  0  0  0  0  0  0  0
   22.2887   26.2779   37.5907 H   0  0  0  0  0  0  0  0  0  0  0  0
   20.9114   26.0341   39.5964 H   0  0  0  0  0  0  0  0  0  0  0  0
   19.1533   25.6430   39.5157 H   0  0  0  0  0  0  0  0  0  0  0  0
   19.9198   26.5438   38.1550 H   0  0  0  0  0  0  0  0  0  0  0  0
   18.6965   21.2174   37.0124 H   0  0  0  0  0  0  0  0  0  0  0  0
   19.0772   22.3813   38.3223 H   0  0  0  0  0  0  0  0  0  0  0  0
   18.9350   22.9426   36.5972 H   0  0  0  0  0  0  0  0  0  0  0  0
  1  2  1  0
  2  3  2  0
  2  4  1  0
  4  5  2  0
  5  6  1  0
  6  7  2  0
  7  8  1  0
  8  9  2  0
  9 10  1  0
 10 11  2  0
 11 12  1  0
 12 13  2  0
 13 14  1  0
  1 15  1  0
 15 16  2  0
 16 17  1  0
 17 18  1  0
 18 19  1  0
 19 20  1  0
 20 21  1  0
 21 22  1  0
 22 23  1  0
 23 24  2  0
 23 25  1  0
 25 26  1  0
 21 27  1  0
 13  4  1  0
 24 15  1  0
 12  7  1  0
 22 17  2  0
  1 28  1  0
  8 29  1  0
  9 30  1  0
 10 31  1  0
 11 32  1  0
 14 33  1  0
 14 34  1  0
 16 35  1  0
 19 36  1  0
 19 37  1  0
 20 38  1  0
 20 39  1  0
 24 40  1  0
 26 41  1  0
 26 42  1  0
 26 43  1  0
 27 44  1  0
 27 45  1  0
 27 46  1  0
M  END
$$$$
