confid_0
     RDKit          3D

 42 45  0  0  0  0  0  0  0  0999 V2000
   24.4800   26.1000   36.1300 N   0  0  0  0  0  0  0  0  0  0  0  0
   25.2500   26.2500   34.9900 C   0  0  0  0  0  0  0  0  0  0  0  0
   24.7400   25.7600   33.9900 O   0  0  0  0  0  0  0  0  0  0  0  0
   26.5900   26.8900   34.9600 C   0  0  0  0  0  0  0  0  0  0  0  0
   27.0600   27.2400   36.1600 N   0  0  0  0  0  0  0  0  0  0  0  0
   28.3000   27.7100   36.2400 N   0  0  0  0  0  0  0  0  0  0  0  0
   29.0500   27.9600   35.1500 C   0  0  0  0  0  0  0  0  0  0  0  0
   30.3400   28.4900   35.2600 C   0  0  0  0  0  0  0  0  0  0  0  0
   31.1100   28.8200   34.1400 C   0  0  0  0  0  0  0  0  0  0  0  0
   30.5200   28.6700   32.8800 C   0  0  0  0  0  0  0  0  0  0  0  0
   29.2900   28.0200   32.7700 C   0  0  0  0  0  0  0  0  0  0  0  0
   28.5200   27.7100   33.8900 C   0  0  0  0  0  0  0  0  0  0  0  0
   27.2700   27.0800   33.7600 C   0  0  0  0  0  0  0  0  0  0  0  0
   26.7500   26.8800   32.4900 N   0  0  0  0  0  0  0  0  0  0  0  0
   23.4921   25.0713   36.3405 C   0  0  0  0  0  0  0  0  0  0  0  0
   23.3993   24.0078   35.4945 N   0  0  0  0  0  0  0  0  0  0  0  0
   22.4933   23.0075   35.6722 C   0  0  0  0  0  0  0  0  0  0  0  0
   22.4607   21.8709   34.6944 C   0  0  0  0  0  0  0  0  0  0  0  0
   22.8704   20.6220   35.3359 N   0  0  0  0  0  0  0  0  0  0  0  0
   22.0319   19.9341   36.2800 C   0  0  0  0  0  0  0  0  0  0  0  0
   21.9435   18.6782   36.2187 O   0  0  0  0  0  0  0  0  0  0  0  0
   21.3598   20.6450   37.4288 C   0  0  0  0  0  0  0  0  0  0  0  0
   20.6331   21.9312   37.0239 C   0  0  0  0  0  0  0  0  0  0  0  0
   21.6142   23.0489   36.7705 C   0  0  0  0  0  0  0  0  0  0  0  0
   21.7056   24.1266   37.6634 C   0  0  0  0  0  0  0  0  0  0  0  0
   22.6418   25.1383   37.4502 C   0  0  0  0  0  0  0  0  0  0  0  0
   24.2705   19.7909   34.7075 Cl  0  0  0  0  0  0  0  0  0  0  0  0
   24.6503   26.7676   36.9160 H   0  0  0  0  0  0  0  0  0  0  0  0
   30.7582   28.6623   36.2441 H   0  0  0  0  0  0  0  0  0  0  0  0
   32.0994   29.2455   34.2469 H   0  0  0  0  0  0  0  0  0  0  0  0
   31.0716   28.9442   31.9898 H   0  0  0  0  0  0  0  0  0  0  0  0
   28.9437   27.8129   31.7669 H   0  0  0  0  0  0  0  0  0  0  0  0
   26.3617   25.9528   32.2111 H   0  0  0  0  0  0  0  0  0  0  0  0
   26.7156   27.6566   31.7925 H   0  0  0  0  0  0  0  0  0  0  0  0
   23.1392   22.0976   33.8433 H   0  0  0  0  0  0  0  0  0  0  0  0
   21.4418   21.7595   34.2665 H   0  0  0  0  0  0  0  0  0  0  0  0
   20.6124   19.9584   37.8839 H   0  0  0  0  0  0  0  0  0  0  0  0
   22.1179   20.8657   38.2113 H   0  0  0  0  0  0  0  0  0  0  0  0
   20.0014   21.7555   36.1270 H   0  0  0  0  0  0  0  0  0  0  0  0
   19.9378   22.2144   37.8444 H   0  0  0  0  0  0  0  0  0  0  0  0
   21.0572   24.1824   38.5289 H   0  0  0  0  0  0  0  0  0  0  0  0
   22.7057   25.9660   38.1453 H   0  0  0  0  0  0  0  0  0  0  0  0
  1  2  1  0
  2  3  2  0
  2  4  1  0
  4  5  2  0
  5  6  1  0
  6  7  2  0
  7  8  1  0
  8  9  2  0
  9 10  1  0
 10 11  2  0
 11 12  1  0
 12 13  2  0
 13 14  1  0
  1 15  1  0
 15 16  2  0
 16 17  1  0
 17 18  1  0
 18 19  1  0
 19 20  1  0
 20 21  2  0
 20 22  1  0
 22 23  1  0
 23 24  1  0
 24 25  1  0
 25 26  2  0
 19 27  1  0
 13  4  1  0
 26 15  1  0
 12  7  1  0
 24 17  2  0
  1 28  1  0
  8 29  1  0
  9 30  1  0
 10 31  1  0
 11 32  1  0
 14 33  1  0
 14 34  1  0
 18 35  1  0
 18 36  1  0
 22 37  1  0
 22 38  1  0
 23 39  1  0
 23 40  1  0
 25 41  1  0
 26 42  1  0
M  END
$$$$
confid_1
     RDKit          3D

 42 45  0  0  0  0  0  0  0  0999 V2000
   24.4800   26.1000   36.1300 N   0  0  0  0  0  0  0  0  0  0  0  0
   25.2500   26.2500   34.9900 C   0  0  0  0  0  0  0  0  0  0  0  0
   24.7400   25.7600   33.9900 O   0  0  0  0  0  0  0  0  0  0  0  0
   26.5900   26.8900   34.9600 C   0  0  0  0  0  0  0  0  0  0  0  0
   27.0600   27.2400   36.1600 N   0  0  0  0  0  0  0  0  0  0  0  0
   28.3000   27.7100   36.2400 N   0  0  0  0  0  0  0  0  0  0  0  0
   29.0500   27.9600   35.1500 C   0  0  0  0  0  0  0  0  0  0  0  0
   30.3400   28.4900   35.2600 C   0  0  0  0  0  0  0  0  0  0  0  0
   31.1100   28.8200   34.1400 C   0  0  0  0  0  0  0  0  0  0  0  0
   30.5200   28.6700   32.8800 C   0  0  0  0  0  0  0  0  0  0  0  0
   29.2900   28.0200   32.7700 C   0  0  0  0  0  0  0  0  0  0  0  0
   28.5200   27.7100   33.8900 C   0  0  0  0  0  0  0  0  0  0  0  0
   27.2700   27.0800   33.7600 C   0  0  0  0  0  0  0  0  0  0  0  0
   26.7500   26.8800   32.4900 N   0  0  0  0  0  0  0  0  0  0  0  0
   23.0444   25.9707   36.1476 C   0  0  0  0  0  0  0  0  0  0  0  0
   22.3088   26.2109   35.0299 N   0  0  0  0  0  0  0  0  0  0  0  0
   20.9500   26.1168   34.9905 C   0  0  0  0  0  0  0  0  0  0  0  0
   20.2974   26.4780   33.6805 C   0  0  0  0  0  0  0  0  0  0  0  0
   19.3058   25.4878   33.2750 N   0  0  0  0  0  0  0  0  0  0  0  0
   18.0443   25.4138   33.9425 C   0  0  0  0  0  0  0  0  0  0  0  0
   17.1176   24.7019   33.4698 O   0  0  0  0  0  0  0  0  0  0  0  0
   17.8401   26.1398   35.2340 C   0  0  0  0  0  0  0  0  0  0  0  0
   18.7427   25.5495   36.3168 C   0  0  0  0  0  0  0  0  0  0  0  0
   20.2436   25.7824   36.1854 C   0  0  0  0  0  0  0  0  0  0  0  0
   21.0020   25.5333   37.3431 C   0  0  0  0  0  0  0  0  0  0  0  0
   22.3902   25.6339   37.3314 C   0  0  0  0  0  0  0  0  0  0  0  0
   19.6218   24.4734   31.8903 Cl  0  0  0  0  0  0  0  0  0  0  0  0
   24.9690   26.1202   37.0534 H   0  0  0  0  0  0  0  0  0  0  0  0
   30.7582   28.6623   36.2441 H   0  0  0  0  0  0  0  0  0  0  0  0
   32.0994   29.2455   34.2469 H   0  0  0  0  0  0  0  0  0  0  0  0
   31.0715   28.9442   31.9898 H   0  0  0  0  0  0  0  0  0  0  0  0
   28.9437   27.8129   31.7669 H   0  0  0  0  0  0  0  0  0  0  0  0
   26.3613   25.9530   32.2111 H   0  0  0  0  0  0  0  0  0  0  0  0
   26.7154   27.6567   31.7927 H   0  0  0  0  0  0  0  0  0  0  0  0
   21.0776   26.5515   32.8913 H   0  0  0  0  0  0  0  0  0  0  0  0
   19.8368   27.4857   33.7486 H   0  0  0  0  0  0  0  0  0  0  0  0
   16.7807   26.0273   35.5533 H   0  0  0  0  0  0  0  0  0  0  0  0
   18.0284   27.2272   35.1169 H   0  0  0  0  0  0  0  0  0  0  0  0
   18.4057   25.9828   37.2846 H   0  0  0  0  0  0  0  0  0  0  0  0
   18.5622   24.4536   36.3808 H   0  0  0  0  0  0  0  0  0  0  0  0
   20.5127   25.2498   38.2675 H   0  0  0  0  0  0  0  0  0  0  0  0
   22.9512   25.4418   38.2374 H   0  0  0  0  0  0  0  0  0  0  0  0
  1  2  1  0
  2  3  2  0
  2  4  1  0
  4  5  2  0
  5  6  1  0
  6  7  2  0
  7  8  1  0
  8  9  2  0
  9 10  1  0
 10 11  2  0
 11 12  1  0
 12 13  2  0
 13 14  1  0
  1 15  1  0
 15 16  2  0
 16 17  1  0
 17 18  1  0
 18 19  1  0
 19 20  1  0
 20 21  2  0
 20 22  1  0
 22 23  1  0
 23 24  1  0
 24 25  1  0
 25 26  2  0
 19 27  1  0
 13  4  1  0
 26 15  1  0
 12  7  1  0
 24 17  2  0
  1 28  1  0
  8 29  1  0
  9 30  1  0
 10 31  1  0
 11 32  1  0
 14 33  1  0
 14 34  1  0
 18 35  1  0
 18 36  1  0
 22 37  1  0
 22 38  1  0
 23 39  1  0
 23 40  1  0
 25 41  1  0
 26 42  1  0
M  END
$$$$
confid_2
     RDKit          3D

 42 45  0  0  0  0  0  0  0  0999 V2000
   24.4800   26.1000   36.1300 N   0  0  0  0  0  0  0  0  0  0  0  0
   25.2500   26.2500   34.9900 C   0  0  0  0  0  0  0  0  0  0  0  0
   24.7400   25.7600   33.9900 O   0  0  0  0  0  0  0  0  0  0  0  0
   26.5900   26.8900   34.9600 C   0  0  0  0  0  0  0  0  0  0  0  0
   27.0600   27.2400   36.1600 N   0  0  0  0  0  0  0  0  0  0  0  0
   28.3000   27.7100   36.2400 N   0  0  0  0  0  0  0  0  0  0  0  0
   29.0500   27.9600   35.1500 C   0  0  0  0  0  0  0  0  0  0  0  0
   30.3400   28.4900   35.2600 C   0  0  0  0  0  0  0  0  0  0  0  0
   31.1100   28.8200   34.1400 C   0  0  0  0  0  0  0  0  0  0  0  0
   30.5200   28.6700   32.8800 C   0  0  0  0  0  0  0  0  0  0  0  0
   29.2900   28.0200   32.7700 C   0  0  0  0  0  0  0  0  0  0  0  0
   28.5200   27.7100   33.8900 C   0  0  0  0  0  0  0  0  0  0  0  0
   27.2700   27.0800   33.7600 C   0  0  0  0  0  0  0  0  0  0  0  0
   26.7500   26.8800   32.4900 N   0  0  0  0  0  0  0  0  0  0  0  0
   23.4881   25.0747   36.3382 C   0  0  0  0  0  0  0  0  0  0  0  0
   23.3951   24.0103   35.4935 N   0  0  0  0  0  0  0  0  0  0  0  0
   22.4859   23.0127   35.6697 C   0  0  0  0  0  0  0  0  0  0  0  0
   22.4420   21.8835   34.6839 C   0  0  0  0  0  0  0  0  0  0  0  0
   21.1870   21.8985   33.9331 N   0  0  0  0  0  0  0  0  0  0  0  0
   19.9322   21.5281   34.5298 C   0  0  0  0  0  0  0  0  0  0  0  0
   19.1280   20.8152   33.8712 O   0  0  0  0  0  0  0  0  0  0  0  0
   19.4815   22.0732   35.8625 C   0  0  0  0  0  0  0  0  0  0  0  0
   20.5489   21.9965   36.9585 C   0  0  0  0  0  0  0  0  0  0  0  0
   21.6011   23.0597   36.7632 C   0  0  0  0  0  0  0  0  0  0  0  0
   21.6818   24.1467   37.6459 C   0  0  0  0  0  0  0  0  0  0  0  0
   22.6286   25.1502   37.4403 C   0  0  0  0  0  0  0  0  0  0  0  0
   21.2640   22.0708   32.1980 Cl  0  0  0  0  0  0  0  0  0  0  0  0
   24.6511   26.7667   36.9166 H   0  0  0  0  0  0  0  0  0  0  0  0
   30.7582   28.6623   36.2441 H   0  0  0  0  0  0  0  0  0  0  0  0
   32.0994   29.2455   34.2469 H   0  0  0  0  0  0  0  0  0  0  0  0
   31.0716   28.9442   31.9898 H   0  0  0  0  0  0  0  0  0  0  0  0
   28.9437   27.8129   31.7669 H   0  0  0  0  0  0  0  0  0  0  0  0
   26.3615   25.9529   32.2111 H   0  0  0  0  0  0  0  0  0  0  0  0
   26.7157   27.6566   31.7925 H   0  0  0  0  0  0  0  0  0  0  0  0
   22.5582   20.9105   35.2065 H   0  0  0  0  0  0  0  0  0  0  0  0
   23.3011   21.9723   33.9836 H   0  0  0  0  0  0  0  0  0  0  0  0
   18.5974   21.4914   36.2044 H   0  0  0  0  0  0  0  0  0  0  0  0
   19.1471   23.1250   35.7292 H   0  0  0  0  0  0  0  0  0  0  0  0
   20.0503   22.1313   37.9435 H   0  0  0  0  0  0  0  0  0  0  0  0
   21.0130   20.9872   36.9799 H   0  0  0  0  0  0  0  0  0  0  0  0
   21.0102   24.2212   38.4922 H   0  0  0  0  0  0  0  0  0  0  0  0
   22.6863   25.9835   38.1292 H   0  0  0  0  0  0  0  0  0  0  0  0
  1  2  1  0
  2  3  2  0
  2  4  1  0
  4  5  2  0
  5  6  1  0
  6  7  2  0
  7  8  1  0
  8  9  2  0
  9 10  1  0
 10 11  2  0
 11 12  1  0
 12 13  2  0
 13 14  1  0
  1 15  1  0
 15 16  2  0
 16 17  1  0
 17 18  1  0
 18 19  1  0
 19 20  1  0
 20 21  2  0
 20 22  1  0
 22 23  1  0
 23 24  1  0
 24 25  1  0
 25 26  2  0
 19 27  1  0
 13  4  1  0
 26 15  1  0
 12  7  1  0
 24 17  2  0
  1 28  1  0
  8 29  1  0
  9 30  1  0
 10 31  1  0
 11 32  1  0
 14 33  1  0
 14 34  1  0
 18 35  1  0
 18 36  1  0
 22 37  1  0
 22 38  1  0
 23 39  1  0
 23 40  1  0
 25 41  1  0
 26 42  1  0
M  END
$$$$
confid_3
     RDKit          3D

 42 45  0  0  0  0  0  0  0  0999 V2000
   24.4800   26.1000   36.1300 N   0  0  0  0  0  0  0  0  0  0  0  0
   25.2500   26.2500   34.9900 C   0  0  0  0  0  0  0  0  0  0  0  0
   24.7400   25.7600   33.9900 O   0  0  0  0  0  0  0  0  0  0  0  0
   26.5900   26.8900   34.9600 C   0  0  0  0  0  0  0  0  0  0  0  0
   27.0600   27.2400   36.1600 N   0  0  0  0  0  0  0  0  0  0  0  0
   28.3000   27.7100   36.2400 N   0  0  0  0  0  0  0  0  0  0  0  0
   29.0500   27.9600   35.1500 C   0  0  0  0  0  0  0  0  0  0  0  0
   30.3400   28.4900   35.2600 C   0  0  0  0  0  0  0  0  0  0  0  0
   31.1100   28.8200   34.1400 C   0  0  0  0  0  0  0  0  0  0  0  0
   30.5200   28.6700   32.8800 C   0  0  0  0  0  0  0  0  0  0  0  0
   29.2900   28.0200   32.7700 C   0  0  0  0  0  0  0  0  0  0  0  0
   28.5200   27.7100   33.8900 C   0  0  0  0  0  0  0  0  0  0  0  0
   27.2700   27.0800   33.7600 C   0  0  0  0  0  0  0  0  0  0  0  0
   26.7500   26.8800   32.4900 N   0  0  0  0  0  0  0  0  0  0  0  0
   23.4860   25.0764   36.3373 C   0  0  0  0  0  0  0  0  0  0  0  0
   23.3909   24.0144   35.4941 N   0  0  0  0  0  0  0  0  0  0  0  0
   22.4810   23.0119   35.6484 C   0  0  0  0  0  0  0  0  0  0  0  0
   22.5608   21.8838   34.6515 C   0  0  0  0  0  0  0  0  0  0  0  0
   21.2493   21.5385   34.1141 N   0  0  0  0  0  0  0  0  0  0  0  0
   20.3031   20.8303   34.9177 C   0  0  0  0  0  0  0  0  0  0  0  0
   19.2562   20.3589   34.3974 O   0  0  0  0  0  0  0  0  0  0  0  0
   20.5287   20.6945   36.3899 C   0  0  0  0  0  0  0  0  0  0  0  0
   20.4644   22.0664   37.0600 C   0  0  0  0  0  0  0  0  0  0  0  0
   21.5961   23.0454   36.7684 C   0  0  0  0  0  0  0  0  0  0  0  0
   21.6923   24.1427   37.6426 C   0  0  0  0  0  0  0  0  0  0  0  0
   22.6335   25.1475   37.4379 C   0  0  0  0  0  0  0  0  0  0  0  0
   20.8865   21.8890   32.4432 Cl  0  0  0  0  0  0  0  0  0  0  0  0
   24.6526   26.7656   36.9172 H   0  0  0  0  0  0  0  0  0  0  0  0
   30.7580   28.6629   36.2441 H   0  0  0  0  0  0  0  0  0  0  0  0
   32.0983   29.2479   34.2470 H   0  0  0  0  0  0  0  0  0  0  0  0
   31.0669   28.9543   31.9901 H   0  0  0  0  0  0  0  0  0  0  0  0
   28.9258   27.8587   31.7656 H   0  0  0  0  0  0  0  0  0  0  0  0
   27.2968   26.3786   31.7554 H   0  0  0  0  0  0  0  0  0  0  0  0
   25.7672   27.1502   32.2658 H   0  0  0  0  0  0  0  0  0  0  0  0
   23.0374   20.9960   35.1171 H   0  0  0  0  0  0  0  0  0  0  0  0
   23.2269   22.1835   33.8127 H   0  0  0  0  0  0  0  0  0  0  0  0
   21.4989   20.1995   36.6030 H   0  0  0  0  0  0  0  0  0  0  0  0
   19.7338   20.0487   36.8237 H   0  0  0  0  0  0  0  0  0  0  0  0
   20.4341   21.8848   38.1573 H   0  0  0  0  0  0  0  0  0  0  0  0
   19.5010   22.5547   36.7934 H   0  0  0  0  0  0  0  0  0  0  0  0
   21.0243   24.2262   38.4918 H   0  0  0  0  0  0  0  0  0  0  0  0
   22.6909   25.9796   38.1284 H   0  0  0  0  0  0  0  0  0  0  0  0
  1  2  1  0
  2  3  2  0
  2  4  1  0
  4  5  2  0
  5  6  1  0
  6  7  2  0
  7  8  1  0
  8  9  2  0
  9 10  1  0
 10 11  2  0
 11 12  1  0
 12 13  2  0
 13 14  1  0
  1 15  1  0
 15 16  2  0
 16 17  1  0
 17 18  1  0
 18 19  1  0
 19 20  1  0
 20 21  2  0
 20 22  1  0
 22 23  1  0
 23 24  1  0
 24 25  1  0
 25 26  2  0
 19 27  1  0
 13  4  1  0
 26 15  1  0
 12  7  1  0
 24 17  2  0
  1 28  1  0
  8 29  1  0
  9 30  1  0
 10 31  1  0
 11 32  1  0
 14 33  1  0
 14 34  1  0
 18 35  1  0
 18 36  1  0
 22 37  1  0
 22 38  1  0
 23 39  1  0
 23 40  1  0
 25 41  1  0
 26 42  1  0
M  END
$$$$
confid_4
     RDKit          3D

 42 45  0  0  0  0  0  0  0  0999 V2000
   24.4800   26.1000   36.1300 N   0  0  0  0  0  0  0  0  0  0  0  0
   25.2500   26.2500   34.9900 C   0  0  0  0  0  0  0  0  0  0  0  0
   24.7400   25.7600   33.9900 O   0  0  0  0  0  0  0  0  0  0  0  0
   26.5900   26.8900   34.9600 C   0  0  0  0  0  0  0  0  0  0  0  0
   27.0600   27.2400   36.1600 N   0  0  0  0  0  0  0  0  0  0  0  0
   28.3000   27.7100   36.2400 N   0  0  0  0  0  0  0  0  0  0  0  0
   29.0500   27.9600   35.1500 C   0  0  0  0  0  0  0  0  0  0  0  0
   30.3400   28.4900   35.2600 C   0  0  0  0  0  0  0  0  0  0  0  0
   31.1100   28.8200   34.1400 C   0  0  0  0  0  0  0  0  0  0  0  0
   30.5200   28.6700   32.8800 C   0  0  0  0  0  0  0  0  0  0  0  0
   29.2900   28.0200   32.7700 C   0  0  0  0  0  0  0  0  0  0  0  0
   28.5200   27.7100   33.8900 C   0  0  0  0  0  0  0  0  0  0  0  0
   27.2700   27.0800   33.7600 C   0  0  0  0  0  0  0  0  0  0  0  0
   26.7500   26.8800   32.4900 N   0  0  0  0  0  0  0  0  0  0  0  0
   23.4896   25.0734   36.3396 C   0  0  0  0  0  0  0  0  0  0  0  0
   23.3915   24.0142   35.4931 N   0  0  0  0  0  0  0  0  0  0  0  0
   22.4943   23.0018   35.6573 C   0  0  0  0  0  0  0  0  0  0  0  0
   22.4793   21.9471   34.5802 C   0  0  0  0  0  0  0  0  0  0  0  0
   22.4770   20.5990   35.1378 N   0  0  0  0  0  0  0  0  0  0  0  0
   21.2955   20.0703   35.7436 C   0  0  0  0  0  0  0  0  0  0  0  0
   21.2287   18.8474   36.0420 O   0  0  0  0  0  0  0  0  0  0  0  0
   20.1557   20.9803   36.0742 C   0  0  0  0  0  0  0  0  0  0  0  0
   20.5768   21.9794   37.1511 C   0  0  0  0  0  0  0  0  0  0  0  0
   21.5882   23.0508   36.7596 C   0  0  0  0  0  0  0  0  0  0  0  0
   21.7003   24.1353   37.6478 C   0  0  0  0  0  0  0  0  0  0  0  0
   22.6401   25.1413   37.4427 C   0  0  0  0  0  0  0  0  0  0  0  0
   23.8891   19.5903   34.9517 Cl  0  0  0  0  0  0  0  0  0  0  0  0
   24.6518   26.7666   36.9166 H   0  0  0  0  0  0  0  0  0  0  0  0
   30.7580   28.6629   36.2441 H   0  0  0  0  0  0  0  0  0  0  0  0
   32.0983   29.2479   34.2470 H   0  0  0  0  0  0  0  0  0  0  0  0
   31.0669   28.9543   31.9901 H   0  0  0  0  0  0  0  0  0  0  0  0
   28.9258   27.8587   31.7656 H   0  0  0  0  0  0  0  0  0  0  0  0
   25.7672   27.1502   32.2658 H   0  0  0  0  0  0  0  0  0  0  0  0
   27.2968   26.3786   31.7554 H   0  0  0  0  0  0  0  0  0  0  0  0
   23.3777   22.0695   33.9360 H   0  0  0  0  0  0  0  0  0  0  0  0
   21.6039   22.0947   33.9138 H   0  0  0  0  0  0  0  0  0  0  0  0
   19.3058   20.3763   36.4616 H   0  0  0  0  0  0  0  0  0  0  0  0
   19.7899   21.5098   35.1700 H   0  0  0  0  0  0  0  0  0  0  0  0
   19.6487   22.4859   37.4976 H   0  0  0  0  0  0  0  0  0  0  0  0
   20.9781   21.4212   38.0258 H   0  0  0  0  0  0  0  0  0  0  0  0
   21.0570   24.1992   38.5175 H   0  0  0  0  0  0  0  0  0  0  0  0
   22.7062   25.9661   38.1411 H   0  0  0  0  0  0  0  0  0  0  0  0
  1  2  1  0
  2  3  2  0
  2  4  1  0
  4  5  2  0
  5  6  1  0
  6  7  2  0
  7  8  1  0
  8  9  2  0
  9 10  1  0
 10 11  2  0
 11 12  1  0
 12 13  2  0
 13 14  1  0
  1 15  1  0
 15 16  2  0
 16 17  1  0
 17 18  1  0
 18 19  1  0
 19 20  1  0
 20 21  2  0
 20 22  1  0
 22 23  1  0
 23 24  1  0
 24 25  1  0
 25 26  2  0
 19 27  1  0
 13  4  1  0
 26 15  1  0
 12  7  1  0
 24 17  2  0
  1 28  1  0
  8 29  1  0
  9 30  1  0
 10 31  1  0
 11 32  1  0
 14 33  1  0
 14 34  1  0
 18 35  1  0
 18 36  1  0
 22 37  1  0
 22 38  1  0
 23 39  1  0
 23 40  1  0
 25 41  1  0
 26 42  1  0
M  END
$$$$
confid_5
     RDKit          3D

 42 45  0  0  0  0  0  0  0  0999 V2000
   24.4800   26.1000   36.1300 N   0  0  0  0  0  0  0  0  0  0  0  0
   25.2500   26.2500   34.9900 C   0  0  0  0  0  0  0  0  0  0  0  0
   24.7400   25.7600   33.9900 O   0  0  0  0  0  0  0  0  0  0  0  0
   26.5900   26.8900   34.9600 C   0  0  0  0  0  0  0  0  0  0  0  0
   27.0600   27.2400   36.1600 N   0  0  0  0  0  0  0  0  0  0  0  0
   28.3000   27.7100   36.2400 N   0  0  0  0  0  0  0  0  0  0  0  0
   29.0500   27.9600   35.1500 C   0  0  0  0  0  0  0  0  0  0  0  0
   30.3400   28.4900   35.2600 C   0  0  0  0  0  0  0  0  0  0  0  0
   31.1100   28.8200   34.1400 C   0  0  0  0  0  0  0  0  0  0  0  0
   30.5200   28.6700   32.8800 C   0  0  0  0  0  0  0  0  0  0  0  0
   29.2900   28.0200   32.7700 C   0  0  0  0  0  0  0  0  0  0  0  0
   28.5200   27.7100   33.8900 C   0  0  0  0  0  0  0  0  0  0  0  0
   27.2700   27.0800   33.7600 C   0  0  0  0  0  0  0  0  0  0  0  0
   26.7500   26.8800   32.4900 N   0  0  0  0  0  0  0  0  0  0  0  0
   23.0442   25.9755   36.1474 C   0  0  0  0  0  0  0  0  0  0  0  0
   22.3087   26.2204   35.0274 N   0  0  0  0  0  0  0  0  0  0  0  0
   20.9504   26.1331   35.0098 C   0  0  0  0  0  0  0  0  0  0  0  0
   20.2187   26.4059   33.7296 C   0  0  0  0  0  0  0  0  0  0  0  0
   19.5716   25.1921   33.2328 N   0  0  0  0  0  0  0  0  0  0  0  0
   18.4102   24.6283   33.8661 C   0  0  0  0  0  0  0  0  0  0  0  0
   17.4711   24.1934   33.1467 O   0  0  0  0  0  0  0  0  0  0  0  0
   18.3305   24.4122   35.3573 C   0  0  0  0  0  0  0  0  0  0  0  0
   18.7574   25.6281   36.1853 C   0  0  0  0  0  0  0  0  0  0  0  0
   20.2581   25.7826   36.1840 C   0  0  0  0  0  0  0  0  0  0  0  0
   20.9972   25.5278   37.3486 C   0  0  0  0  0  0  0  0  0  0  0  0
   22.3881   25.6312   37.3348 C   0  0  0  0  0  0  0  0  0  0  0  0
   20.0336   24.5939   31.6597 Cl  0  0  0  0  0  0  0  0  0  0  0  0
   24.9691   26.1170   37.0534 H   0  0  0  0  0  0  0  0  0  0  0  0
   30.7580   28.6629   36.2441 H   0  0  0  0  0  0  0  0  0  0  0  0
   32.0983   29.2479   34.2470 H   0  0  0  0  0  0  0  0  0  0  0  0
   31.0669   28.9543   31.9901 H   0  0  0  0  0  0  0  0  0  0  0  0
   28.9258   27.8587   31.7656 H   0  0  0  0  0  0  0  0  0  0  0  0
   27.2969   26.3788   31.7553 H   0  0  0  0  0  0  0  0  0  0  0  0
   25.7671   27.1499   32.2660 H   0  0  0  0  0  0  0  0  0  0  0  0
   20.9350   26.7887   32.9702 H   0  0  0  0  0  0  0  0  0  0  0  0
   19.4608   27.2035   33.8809 H   0  0  0  0  0  0  0  0  0  0  0  0
   17.2793   24.1673   35.6257 H   0  0  0  0  0  0  0  0  0  0  0  0
   18.9497   23.5297   35.6289 H   0  0  0  0  0  0  0  0  0  0  0  0
   18.2698   26.5502   35.8027 H   0  0  0  0  0  0  0  0  0  0  0  0
   18.3903   25.4900   37.2260 H   0  0  0  0  0  0  0  0  0  0  0  0
   20.4988   25.2454   38.2675 H   0  0  0  0  0  0  0  0  0  0  0  0
   22.9502   25.4365   38.2395 H   0  0  0  0  0  0  0  0  0  0  0  0
  1  2  1  0
  2  3  2  0
  2  4  1  0
  4  5  2  0
  5  6  1  0
  6  7  2  0
  7  8  1  0
  8  9  2  0
  9 10  1  0
 10 11  2  0
 11 12  1  0
 12 13  2  0
 13 14  1  0
  1 15  1  0
 15 16  2  0
 16 17  1  0
 17 18  1  0
 18 19  1  0
 19 20  1  0
 20 21  2  0
 20 22  1  0
 22 23  1  0
 23 24  1  0
 24 25  1  0
 25 26  2  0
 19 27  1  0
 13  4  1  0
 26 15  1  0
 12  7  1  0
 24 17  2  0
  1 28  1  0
  8 29  1  0
  9 30  1  0
 10 31  1  0
 11 32  1  0
 14 33  1  0
 14 34  1  0
 18 35  1  0
 18 36  1  0
 22 37  1  0
 22 38  1  0
 23 39  1  0
 23 40  1  0
 25 41  1  0
 26 42  1  0
M  END
$$$$
confid_6
     RDKit          3D

 42 45  0  0  0  0  0  0  0  0999 V2000
   24.4800   26.1000   36.1300 N   0  0  0  0  0  0  0  0  0  0  0  0
   25.2500   26.2500   34.9900 C   0  0  0  0  0  0  0  0  0  0  0  0
   24.7400   25.7600   33.9900 O   0  0  0  0  0  0  0  0  0  0  0  0
   26.5900   26.8900   34.9600 C   0  0  0  0  0  0  0  0  0  0  0  0
   27.0600   27.2400   36.1600 N   0  0  0  0  0  0  0  0  0  0  0  0
   28.3000   27.7100   36.2400 N   0  0  0  0  0  0  0  0  0  0  0  0
   29.0500   27.9600   35.1500 C   0  0  0  0  0  0  0  0  0  0  0  0
   30.3400   28.4900   35.2600 C   0  0  0  0  0  0  0  0  0  0  0  0
   31.1100   28.8200   34.1400 C   0  0  0  0  0  0  0  0  0  0  0  0
   30.5200   28.6700   32.8800 C   0  0  0  0  0  0  0  0  0  0  0  0
   29.2900   28.0200   32.7700 C   0  0  0  0  0  0  0  0  0  0  0  0
   28.5200   27.7100   33.8900 C   0  0  0  0  0  0  0  0  0  0  0  0
   27.2700   27.0800   33.7600 C   0  0  0  0  0  0  0  0  0  0  0  0
   26.7500   26.8800   32.4900 N   0  0  0  0  0  0  0  0  0  0  0  0
   23.0439   25.9775   36.1480 C   0  0  0  0  0  0  0  0  0  0  0  0
   22.3087   26.2178   35.0269 N   0  0  0  0  0  0  0  0  0  0  0  0
   20.9503   26.1314   35.0096 C   0  0  0  0  0  0  0  0  0  0  0  0
   20.2177   26.4158   33.7323 C   0  0  0  0  0  0  0  0  0  0  0  0
   19.4088   27.6280   33.8566 N   0  0  0  0  0  0  0  0  0  0  0  0
   18.2066   27.6698   34.6444 C   0  0  0  0  0  0  0  0  0  0  0  0
   17.1980   28.2745   34.1906 O   0  0  0  0  0  0  0  0  0  0  0  0
   18.1476   27.1346   36.0539 C   0  0  0  0  0  0  0  0  0  0  0  0
   18.7501   25.7353   36.2129 C   0  0  0  0  0  0  0  0  0  0  0  0
   20.2575   25.7900   36.1861 C   0  0  0  0  0  0  0  0  0  0  0  0
   20.9953   25.5556   37.3557 C   0  0  0  0  0  0  0  0  0  0  0  0
   22.3870   25.6473   37.3389 C   0  0  0  0  0  0  0  0  0  0  0  0
   19.7423   28.9582   32.7772 Cl  0  0  0  0  0  0  0  0  0  0  0  0
   24.9693   26.1179   37.0533 H   0  0  0  0  0  0  0  0  0  0  0  0
   30.7582   28.6623   36.2441 H   0  0  0  0  0  0  0  0  0  0  0  0
   32.0994   29.2455   34.2469 H   0  0  0  0  0  0  0  0  0  0  0  0
   31.0715   28.9442   31.9898 H   0  0  0  0  0  0  0  0  0  0  0  0
   28.9437   27.8129   31.7669 H   0  0  0  0  0  0  0  0  0  0  0  0
   26.3614   25.9530   32.2110 H   0  0  0  0  0  0  0  0  0  0  0  0
   26.7154   27.6568   31.7927 H   0  0  0  0  0  0  0  0  0  0  0  0
   19.5703   25.5557   33.4593 H   0  0  0  0  0  0  0  0  0  0  0  0
   20.9515   26.5356   32.9056 H   0  0  0  0  0  0  0  0  0  0  0  0
   17.0831   27.0871   36.3724 H   0  0  0  0  0  0  0  0  0  0  0  0
   18.6593   27.8495   36.7344 H   0  0  0  0  0  0  0  0  0  0  0  0
   18.3700   25.0555   35.4205 H   0  0  0  0  0  0  0  0  0  0  0  0
   18.4022   25.3115   37.1805 H   0  0  0  0  0  0  0  0  0  0  0  0
   20.4946   25.3076   38.2834 H   0  0  0  0  0  0  0  0  0  0  0  0
   22.9482   25.4653   38.2468 H   0  0  0  0  0  0  0  0  0  0  0  0
  1  2  1  0
  2  3  2  0
  2  4  1  0
  4  5  2  0
  5  6  1  0
  6  7  2  0
  7  8  1  0
  8  9  2  0
  9 10  1  0
 10 11  2  0
 11 12  1  0
 12 13  2  0
 13 14  1  0
  1 15  1  0
 15 16  2  0
 16 17  1  0
 17 18  1  0
 18 19  1  0
 19 20  1  0
 20 21  2  0
 20 22  1  0
 22 23  1  0
 23 24  1  0
 24 25  1  0
 25 26  2  0
 19 27  1  0
 13  4  1  0
 26 15  1  0
 12  7  1  0
 24 17  2  0
  1 28  1  0
  8 29  1  0
  9 30  1  0
 10 31  1  0
 11 32  1  0
 14 33  1  0
 14 34  1  0
 18 35  1  0
 18 36  1  0
 22 37  1  0
 22 38  1  0
 23 39  1  0
 23 40  1  0
 25 41  1  0
 26 42  1  0
M  END
$$$$
confid_7
     RDKit          3D

 42 45  0  0  0  0  0  0  0  0999 V2000
   24.4800   26.1000   36.1300 N   0  0  0  0  0  0  0  0  0  0  0  0
   25.2500   26.2500   34.9900 C   0  0  0  0  0  0  0  0  0  0  0  0
   24.7400   25.7600   33.9900 O   0  0  0  0  0  0  0  0  0  0  0  0
   26.5900   26.8900   34.9600 C   0  0  0  0  0  0  0  0  0  0  0  0
   27.0600   27.2400   36.1600 N   0  0  0  0  0  0  0  0  0  0  0  0
   28.3000   27.7100   36.2400 N   0  0  0  0  0  0  0  0  0  0  0  0
   29.0500   27.9600   35.1500 C   0  0  0  0  0  0  0  0  0  0  0  0
   30.3400   28.4900   35.2600 C   0  0  0  0  0  0  0  0  0  0  0  0
   31.1100   28.8200   34.1400 C   0  0  0  0  0  0  0  0  0  0  0  0
   30.5200   28.6700   32.8800 C   0  0  0  0  0  0  0  0  0  0  0  0
   29.2900   28.0200   32.7700 C   0  0  0  0  0  0  0  0  0  0  0  0
   28.5200   27.7100   33.8900 C   0  0  0  0  0  0  0  0  0  0  0  0
   27.2700   27.0800   33.7600 C   0  0  0  0  0  0  0  0  0  0  0  0
   26.7500   26.8800   32.4900 N   0  0  0  0  0  0  0  0  0  0  0  0
   23.5359   25.0394   36.3660 C   0  0  0  0  0  0  0  0  0  0  0  0
   22.4840   25.2665   37.1979 N   0  0  0  0  0  0  0  0  0  0  0  0
   21.5630   24.3086   37.4939 C   0  0  0  0  0  0  0  0  0  0  0  0
   20.4327   24.6448   38.4208 C   0  0  0  0  0  0  0  0  0  0  0  0
   20.5416   23.8892   39.6684 N   0  0  0  0  0  0  0  0  0  0  0  0
   20.2766   22.4774   39.7354 C   0  0  0  0  0  0  0  0  0  0  0  0
   19.6246   22.0227   40.7136 O   0  0  0  0  0  0  0  0  0  0  0  0
   20.8662   21.4990   38.7497 C   0  0  0  0  0  0  0  0  0  0  0  0
   20.7151   21.9246   37.2861 C   0  0  0  0  0  0  0  0  0  0  0  0
   21.6909   23.0216   36.9391 C   0  0  0  0  0  0  0  0  0  0  0  0
   22.7855   22.7563   36.1037 C   0  0  0  0  0  0  0  0  0  0  0  0
   23.7107   23.7596   35.8166 C   0  0  0  0  0  0  0  0  0  0  0  0
   20.6915   24.7785   41.1626 Cl  0  0  0  0  0  0  0  0  0  0  0  0
   24.5590   26.8363   36.8672 H   0  0  0  0  0  0  0  0  0  0  0  0
   30.7582   28.6623   36.2441 H   0  0  0  0  0  0  0  0  0  0  0  0
   32.0994   29.2455   34.2469 H   0  0  0  0  0  0  0  0  0  0  0  0
   31.0716   28.9442   31.9898 H   0  0  0  0  0  0  0  0  0  0  0  0
   28.9437   27.8129   31.7669 H   0  0  0  0  0  0  0  0  0  0  0  0
   26.7157   27.6566   31.7925 H   0  0  0  0  0  0  0  0  0  0  0  0
   26.3617   25.9528   32.2111 H   0  0  0  0  0  0  0  0  0  0  0  0
   19.4578   24.4312   37.9334 H   0  0  0  0  0  0  0  0  0  0  0  0
   20.4464   25.7351   38.6382 H   0  0  0  0  0  0  0  0  0  0  0  0
   20.3580   20.5176   38.8750 H   0  0  0  0  0  0  0  0  0  0  0  0
   21.9398   21.3429   38.9924 H   0  0  0  0  0  0  0  0  0  0  0  0
   19.6728   22.2499   37.0810 H   0  0  0  0  0  0  0  0  0  0  0  0
   20.8968   21.0365   36.6417 H   0  0  0  0  0  0  0  0  0  0  0  0
   22.9317   21.7689   35.6837 H   0  0  0  0  0  0  0  0  0  0  0  0
   24.5659   23.5281   35.1954 H   0  0  0  0  0  0  0  0  0  0  0  0
  1  2  1  0
  2  3  2  0
  2  4  1  0
  4  5  2  0
  5  6  1  0
  6  7  2  0
  7  8  1  0
  8  9  2  0
  9 10  1  0
 10 11  2  0
 11 12  1  0
 12 13  2  0
 13 14  1  0
  1 15  1  0
 15 16  2  0
 16 17  1  0
 17 18  1  0
 18 19  1  0
 19 20  1  0
 20 21  2  0
 20 22  1  0
 22 23  1  0
 23 24  1  0
 24 25  1  0
 25 26  2  0
 19 27  1  0
 13  4  1  0
 26 15  1  0
 12  7  1  0
 24 17  2  0
  1 28  1  0
  8 29  1  0
  9 30  1  0
 10 31  1  0
 11 32  1  0
 14 33  1  0
 14 34  1  0
 18 35  1  0
 18 36  1  0
 22 37  1  0
 22 38  1  0
 23 39  1  0
 23 40  1  0
 25 41  1  0
 26 42  1  0
M  END
$$$$
confid_8
     RDKit          3D

 42 45  0  0  0  0  0  0  0  0999 V2000
   24.4800   26.1000   36.1300 N   0  0  0  0  0  0  0  0  0  0  0  0
   25.2500   26.2500   34.9900 C   0  0  0  0  0  0  0  0  0  0  0  0
   24.7400   25.7600   33.9900 O   0  0  0  0  0  0  0  0  0  0  0  0
   26.5900   26.8900   34.9600 C   0  0  0  0  0  0  0  0  0  0  0  0
   27.0600   27.2400   36.1600 N   0  0  0  0  0  0  0  0  0  0  0  0
   28.3000   27.7100   36.2400 N   0  0  0  0  0  0  0  0  0  0  0  0
   29.0500   27.9600   35.1500 C   0  0  0  0  0  0  0  0  0  0  0  0
   30.3400   28.4900   35.2600 C   0  0  0  0  0  0  0  0  0  0  0  0
   31.1100   28.8200   34.1400 C   0  0  0  0  0  0  0  0  0  0  0  0
   30.5200   28.6700   32.8800 C   0  0  0  0  0  0  0  0  0  0  0  0
   29.2900   28.0200   32.7700 C   0  0  0  0  0  0  0  0  0  0  0  0
   28.5200   27.7100   33.8900 C   0  0  0  0  0  0  0  0  0  0  0  0
   27.2700   27.0800   33.7600 C   0  0  0  0  0  0  0  0  0  0  0  0
   26.7500   26.8800   32.4900 N   0  0  0  0  0  0  0  0  0  0  0  0
   23.0422   26.0392   36.1589 C   0  0  0  0  0  0  0  0  0  0  0  0
   22.4306   25.3921   37.1871 N   0  0  0  0  0  0  0  0  0  0  0  0
   21.0764   25.3129   37.3022 C   0  0  0  0  0  0  0  0  0  0  0  0
   20.4852   24.5665   38.4611 C   0  0  0  0  0  0  0  0  0  0  0  0
   19.7812   23.3687   38.0038 N   0  0  0  0  0  0  0  0  0  0  0  0
   18.5252   23.4372   37.3069 C   0  0  0  0  0  0  0  0  0  0  0  0
   17.6177   22.6121   37.5977 O   0  0  0  0  0  0  0  0  0  0  0  0
   18.2985   24.3723   36.1447 C   0  0  0  0  0  0  0  0  0  0  0  0
   18.7534   25.8115   36.4066 C   0  0  0  0  0  0  0  0  0  0  0  0
   20.2563   25.9243   36.3357 C   0  0  0  0  0  0  0  0  0  0  0  0
   20.8654   26.6093   35.2746 C   0  0  0  0  0  0  0  0  0  0  0  0
   22.2556   26.6796   35.1883 C   0  0  0  0  0  0  0  0  0  0  0  0
   20.3208   21.8175   38.5943 Cl  0  0  0  0  0  0  0  0  0  0  0  0
   24.9757   25.9908   37.0433 H   0  0  0  0  0  0  0  0  0  0  0  0
   30.7580   28.6629   36.2441 H   0  0  0  0  0  0  0  0  0  0  0  0
   32.0983   29.2479   34.2470 H   0  0  0  0  0  0  0  0  0  0  0  0
   31.0669   28.9543   31.9901 H   0  0  0  0  0  0  0  0  0  0  0  0
   28.9258   27.8586   31.7656 H   0  0  0  0  0  0  0  0  0  0  0  0
   27.2968   26.3787   31.7553 H   0  0  0  0  0  0  0  0  0  0  0  0
   25.7671   27.1500   32.2661 H   0  0  0  0  0  0  0  0  0  0  0  0
   21.2953   24.2812   39.1672 H   0  0  0  0  0  0  0  0  0  0  0  0
   19.7885   25.2213   39.0263 H   0  0  0  0  0  0  0  0  0  0  0  0
   18.8149   23.9667   35.2475 H   0  0  0  0  0  0  0  0  0  0  0  0
   17.2108   24.3939   35.9128 H   0  0  0  0  0  0  0  0  0  0  0  0
   18.3815   26.1643   37.3924 H   0  0  0  0  0  0  0  0  0  0  0  0
   18.2858   26.4708   35.6425 H   0  0  0  0  0  0  0  0  0  0  0  0
   20.2654   27.0931   34.5139 H   0  0  0  0  0  0  0  0  0  0  0  0
   22.7071   27.2409   34.3809 H   0  0  0  0  0  0  0  0  0  0  0  0
  1  2  1  0
  2  3  2  0
  2  4  1  0
  4  5  2  0
  5  6  1  0
  6  7  2  0
  7  8  1  0
  8  9  2  0
  9 10  1  0
 10 11  2  0
 11 12  1  0
 12 13  2  0
 13 14  1  0
  1 15  1  0
 15 16  2  0
 16 17  1  0
 17 18  1  0
 18 19  1  0
 19 20  1  0
 20 21  2  0
 20 22  1  0
 22 23  1  0
 23 24  1  0
 24 25  1  0
 25 26  2  0
 19 27  1  0
 13  4  1  0
 26 15  1  0
 12  7  1  0
 24 17  2  0
  1 28  1  0
  8 29  1  0
  9 30  1  0
 10 31  1  0
 11 32  1  0
 14 33  1  0
 14 34  1  0
 18 35  1  0
 18 36  1  0
 22 37  1  0
 22 38  1  0
 23 39  1  0
 23 40  1  0
 25 41  1  0
 26 42  1  0
M  END
$$$$
confid_9
     RDKit          3D

 42 45  0  0  0  0  0  0  0  0999 V2000
   24.4800   26.1000   36.1300 N   0  0  0  0  0  0  0  0  0  0  0  0
   25.2500   26.2500   34.9900 C   0  0  0  0  0  0  0  0  0  0  0  0
   24.7400   25.7600   33.9900 O   0  0  0  0  0  0  0  0  0  0  0  0
   26.5900   26.8900   34.9600 C   0  0  0  0  0  0  0  0  0  0  0  0
   27.0600   27.2400   36.1600 N   0  0  0  0  0  0  0  0  0  0  0  0
   28.3000   27.7100   36.2400 N   0  0  0  0  0  0  0  0  0  0  0  0
   29.0500   27.9600   35.1500 C   0  0  0  0  0  0  0  0  0  0  0  0
   30.3400   28.4900   35.2600 C   0  0  0  0  0  0  0  0  0  0  0  0
   31.1100   28.8200   34.1400 C   0  0  0  0  0  0  0  0  0  0  0  0
   30.5200   28.6700   32.8800 C   0  0  0  0  0  0  0  0  0  0  0  0
   29.2900   28.0200   32.7700 C   0  0  0  0  0  0  0  0  0  0  0  0
   28.5200   27.7100   33.8900 C   0  0  0  0  0  0  0  0  0  0  0  0
   27.2700   27.0800   33.7600 C   0  0  0  0  0  0  0  0  0  0  0  0
   26.7500   26.8800   32.4900 N   0  0  0  0  0  0  0  0  0  0  0  0
   23.0440   25.9758   36.1481 C   0  0  0  0  0  0  0  0  0  0  0  0
   22.3092   26.2108   35.0288 N   0  0  0  0  0  0  0  0  0  0  0  0
   20.9492   26.1350   34.9933 C   0  0  0  0  0  0  0  0  0  0  0  0
   20.3069   26.3566   33.6476 C   0  0  0  0  0  0  0  0  0  0  0  0
   19.1813   27.2811   33.7267 N   0  0  0  0  0  0  0  0  0  0  0  0
   17.9433   26.8636   34.3061 C   0  0  0  0  0  0  0  0  0  0  0  0
   16.9159   27.5854   34.1951 O   0  0  0  0  0  0  0  0  0  0  0  0
   17.8790   25.5932   35.0926 C   0  0  0  0  0  0  0  0  0  0  0  0
   18.7309   25.7139   36.3555 C   0  0  0  0  0  0  0  0  0  0  0  0
   20.2443   25.7706   36.1804 C   0  0  0  0  0  0  0  0  0  0  0  0
   21.0004   25.5456   37.3444 C   0  0  0  0  0  0  0  0  0  0  0  0
   22.3888   25.6443   37.3329 C   0  0  0  0  0  0  0  0  0  0  0  0
   19.3155   28.8620   32.9992 Cl  0  0  0  0  0  0  0  0  0  0  0  0
   24.9694   26.1189   37.0532 H   0  0  0  0  0  0  0  0  0  0  0  0
   30.7582   28.6623   36.2441 H   0  0  0  0  0  0  0  0  0  0  0  0
   32.0994   29.2455   34.2469 H   0  0  0  0  0  0  0  0  0  0  0  0
   31.0715   28.9442   31.9898 H   0  0  0  0  0  0  0  0  0  0  0  0
   28.9437   27.8129   31.7669 H   0  0  0  0  0  0  0  0  0  0  0  0
   26.7154   27.6567   31.7927 H   0  0  0  0  0  0  0  0  0  0  0  0
   26.3613   25.9530   32.2111 H   0  0  0  0  0  0  0  0  0  0  0  0
   19.9849   25.3867   33.2141 H   0  0  0  0  0  0  0  0  0  0  0  0
   21.0638   26.7690   32.9446 H   0  0  0  0  0  0  0  0  0  0  0  0
   16.8250   25.4008   35.3911 H   0  0  0  0  0  0  0  0  0  0  0  0
   18.2050   24.7262   34.4814 H   0  0  0  0  0  0  0  0  0  0  0  0
   18.4863   24.8341   36.9912 H   0  0  0  0  0  0  0  0  0  0  0  0
   18.4096   26.6144   36.9243 H   0  0  0  0  0  0  0  0  0  0  0  0
   20.5080   25.2989   38.2778 H   0  0  0  0  0  0  0  0  0  0  0  0
   22.9483   25.4658   38.2426 H   0  0  0  0  0  0  0  0  0  0  0  0
  1  2  1  0
  2  3  2  0
  2  4  1  0
  4  5  2  0
  5  6  1  0
  6  7  2  0
  7  8  1  0
  8  9  2  0
  9 10  1  0
 10 11  2  0
 11 12  1  0
 12 13  2  0
 13 14  1  0
  1 15  1  0
 15 16  2  0
 16 17  1  0
 17 18  1  0
 18 19  1  0
 19 20  1  0
 20 21  2  0
 20 22  1  0
 22 23  1  0
 23 24  1  0
 24 25  1  0
 25 26  2  0
 19 27  1  0
 13  4  1  0
 26 15  1  0
 12  7  1  0
 24 17  2  0
  1 28  1  0
  8 29  1  0
  9 30  1  0
 10 31  1  0
 11 32  1  0
 14 33  1  0
 14 34  1  0
 18 35  1  0
 18 36  1  0
 22 37  1  0
 22 38  1  0
 23 39  1  0
 23 40  1  0
 25 41  1  0
 26 42  1  0
M  END
$$$$
