confid_0
     RDKit          3D

 53 57  0  0  0  0  0  0  0  0999 V2000
   24.2000   26.2400   35.6900 N   0  0  0  0  0  0  0  0  0  0  0  0
   24.8500   26.2800   34.4800 C   0  0  0  0  0  0  0  0  0  0  0  0
   24.3100   25.7400   33.5400 O   0  0  0  0  0  0  0  0  0  0  0  0
   26.1800   26.9700   34.4700 C   0  0  0  0  0  0  0  0  0  0  0  0
   26.6500   27.6000   35.5500 N   0  0  0  0  0  0  0  0  0  0  0  0
   27.7900   28.2700   35.6200 N   0  0  0  0  0  0  0  0  0  0  0  0
   28.5400   28.3000   34.5100 C   0  0  0  0  0  0  0  0  0  0  0  0
   29.7700   28.9400   34.5600 C   0  0  0  0  0  0  0  0  0  0  0  0
   30.7000   28.8900   33.5000 C   0  0  0  0  0  0  0  0  0  0  0  0
   30.3700   28.1400   32.3700 C   0  0  0  0  0  0  0  0  0  0  0  0
   29.1200   27.5200   32.2800 C   0  0  0  0  0  0  0  0  0  0  0  0
   28.2100   27.6100   33.3300 C   0  0  0  0  0  0  0  0  0  0  0  0
   26.9700   26.9700   33.3100 C   0  0  0  0  0  0  0  0  0  0  0  0
   26.5300   26.2400   32.2200 N   0  0  0  0  0  0  0  0  0  0  0  0
   30.1462   29.6560   35.7487 N   0  0  0  0  0  0  0  0  0  0  0  0
   30.1183   31.1225   35.7075 C   0  0  0  0  0  0  0  0  0  0  0  0
   29.8014   31.6749   37.0911 C   0  0  0  0  0  0  0  0  0  0  0  0
   30.7201   31.0782   38.0623 N   0  0  0  0  0  0  0  0  0  0  0  0
   31.6101   31.9364   38.8500 C   0  0  0  0  0  0  0  0  0  0  0  0
   30.8841   29.6427   38.0581 C   0  0  0  0  0  0  0  0  0  0  0  0
   30.6623   28.9579   36.9115 C   0  0  0  0  0  0  0  0  0  0  0  0
   30.8652   27.4527   36.8671 C   0  0  0  0  0  0  0  0  0  0  0  0
   31.8446   26.9617   37.8999 C   0  0  0  0  0  0  0  0  0  0  0  0
   32.5025   25.7341   37.7268 C   0  0  0  0  0  0  0  0  0  0  0  0
   33.3631   25.2528   38.7166 C   0  0  0  0  0  0  0  0  0  0  0  0
   33.5616   25.9864   39.8883 C   0  0  0  0  0  0  0  0  0  0  0  0
   32.8960   27.2009   40.0765 C   0  0  0  0  0  0  0  0  0  0  0  0
   32.0246   27.6913   39.0862 C   0  0  0  0  0  0  0  0  0  0  0  0
   31.3286   28.9424   39.2429 N   0  0  0  0  0  0  0  0  0  0  0  0
   30.9615   29.4238   40.5785 C   0  0  0  0  0  0  0  0  0  0  0  0
   23.2681   25.7737   35.7694 H   0  0  0  0  0  0  0  0  0  0  0  0
   24.5989   26.6537   36.5617 H   0  0  0  0  0  0  0  0  0  0  0  0
   31.6599   29.3857   33.5724 H   0  0  0  0  0  0  0  0  0  0  0  0
   31.0742   28.0590   31.5521 H   0  0  0  0  0  0  0  0  0  0  0  0
   28.8954   26.9541   31.3858 H   0  0  0  0  0  0  0  0  0  0  0  0
   26.3242   25.2204   32.3142 H   0  0  0  0  0  0  0  0  0  0  0  0
   26.6265   26.6230   31.2536 H   0  0  0  0  0  0  0  0  0  0  0  0
   31.1099   31.4979   35.3740 H   0  0  0  0  0  0  0  0  0  0  0  0
   29.3454   31.4776   34.9906 H   0  0  0  0  0  0  0  0  0  0  0  0
   28.7580   31.4076   37.3662 H   0  0  0  0  0  0  0  0  0  0  0  0
   29.8795   32.7837   37.0788 H   0  0  0  0  0  0  0  0  0  0  0  0
   31.1516   32.1520   39.8365 H   0  0  0  0  0  0  0  0  0  0  0  0
   31.7933   32.9006   38.3304 H   0  0  0  0  0  0  0  0  0  0  0  0
   32.5961   31.4450   38.9936 H   0  0  0  0  0  0  0  0  0  0  0  0
   29.8884   26.9530   37.0369 H   0  0  0  0  0  0  0  0  0  0  0  0
   31.2370   27.1613   35.8618 H   0  0  0  0  0  0  0  0  0  0  0  0
   32.3465   25.1505   36.8280 H   0  0  0  0  0  0  0  0  0  0  0  0
   33.8740   24.3089   38.5767 H   0  0  0  0  0  0  0  0  0  0  0  0
   34.2315   25.6132   40.6521 H   0  0  0  0  0  0  0  0  0  0  0  0
   33.0716   27.7588   40.9867 H   0  0  0  0  0  0  0  0  0  0  0  0
   30.0692   30.0832   40.5287 H   0  0  0  0  0  0  0  0  0  0  0  0
   31.8121   29.9781   41.0268 H   0  0  0  0  0  0  0  0  0  0  0  0
   30.6970   28.5686   41.2364 H   0  0  0  0  0  0  0  0  0  0  0  0
  1  2  1  0
  2  3  2  0
  2  4  1  0
  4  5  2  0
  5  6  1  0
  6  7  2  0
  7  8  1  0
  8  9  2  0
  9 10  1  0
 10 11  2  0
 11 12  1  0
 12 13  2  0
 13 14  1  0
  8 15  1  0
 15 16  1  0
 16 17  1  0
 17 18  1  0
 18 19  1  0
 18 20  1  0
 20 21  2  0
 21 22  1  0
 22 23  1  0
 23 24  2  0
 24 25  1  0
 25 26  2  0
 26 27  1  0
 27 28  2  0
 28 29  1  0
 29 30  1  0
 13  4  1  0
 21 15  1  0
 28 23  1  0
 12  7  1  0
 29 20  1  0
  1 31  1  0
  1 32  1  0
  9 33  1  0
 10 34  1  0
 11 35  1  0
 14 36  1  0
 14 37  1  0
 16 38  1  0
 16 39  1  0
 17 40  1  0
 17 41  1  0
 19 42  1  0
 19 43  1  0
 19 44  1  0
 22 45  1  0
 22 46  1  0
 24 47  1  0
 25 48  1  0
 26 49  1  0
 27 50  1  0
 30 51  1  0
 30 52  1  0
 30 53  1  0
M  END
$$$$
confid_1
     RDKit          3D

 53 57  0  0  0  0  0  0  0  0999 V2000
   24.2000   26.2400   35.6900 N   0  0  0  0  0  0  0  0  0  0  0  0
   24.8500   26.2800   34.4800 C   0  0  0  0  0  0  0  0  0  0  0  0
   24.3100   25.7400   33.5400 O   0  0  0  0  0  0  0  0  0  0  0  0
   26.1800   26.9700   34.4700 C   0  0  0  0  0  0  0  0  0  0  0  0
   26.6500   27.6000   35.5500 N   0  0  0  0  0  0  0  0  0  0  0  0
   27.7900   28.2700   35.6200 N   0  0  0  0  0  0  0  0  0  0  0  0
   28.5400   28.3000   34.5100 C   0  0  0  0  0  0  0  0  0  0  0  0
   29.7700   28.9400   34.5600 C   0  0  0  0  0  0  0  0  0  0  0  0
   30.7000   28.8900   33.5000 C   0  0  0  0  0  0  0  0  0  0  0  0
   30.3700   28.1400   32.3700 C   0  0  0  0  0  0  0  0  0  0  0  0
   29.1200   27.5200   32.2800 C   0  0  0  0  0  0  0  0  0  0  0  0
   28.2100   27.6100   33.3300 C   0  0  0  0  0  0  0  0  0  0  0  0
   26.9700   26.9700   33.3100 C   0  0  0  0  0  0  0  0  0  0  0  0
   26.5300   26.2400   32.2200 N   0  0  0  0  0  0  0  0  0  0  0  0
   30.1346   29.6797   35.7398 N   0  0  0  0  0  0  0  0  0  0  0  0
   31.2460   29.1809   36.5581 C   0  0  0  0  0  0  0  0  0  0  0  0
   31.0007   29.5176   38.0231 C   0  0  0  0  0  0  0  0  0  0  0  0
   30.7185   30.9497   38.1414 N   0  0  0  0  0  0  0  0  0  0  0  0
   31.5764   31.7968   38.9753 C   0  0  0  0  0  0  0  0  0  0  0  0
   29.7375   31.5323   37.2540 C   0  0  0  0  0  0  0  0  0  0  0  0
   29.4987   30.9449   36.0575 C   0  0  0  0  0  0  0  0  0  0  0  0
   28.5132   31.5667   35.0823 C   0  0  0  0  0  0  0  0  0  0  0  0
   28.3520   33.0509   35.2772 C   0  0  0  0  0  0  0  0  0  0  0  0
   27.8797   33.8576   34.2304 C   0  0  0  0  0  0  0  0  0  0  0  0
   27.6712   35.2238   34.4358 C   0  0  0  0  0  0  0  0  0  0  0  0
   27.9192   35.7888   35.6888 C   0  0  0  0  0  0  0  0  0  0  0  0
   28.3719   34.9890   36.7416 C   0  0  0  0  0  0  0  0  0  0  0  0
   28.5814   33.6115   36.5441 C   0  0  0  0  0  0  0  0  0  0  0  0
   29.0554   32.7588   37.6035 N   0  0  0  0  0  0  0  0  0  0  0  0
   28.7262   33.0606   39.0000 C   0  0  0  0  0  0  0  0  0  0  0  0
   23.2694   25.7712   35.7699 H   0  0  0  0  0  0  0  0  0  0  0  0
   24.5982   26.6549   36.5614 H   0  0  0  0  0  0  0  0  0  0  0  0
   31.6550   29.3959   33.5659 H   0  0  0  0  0  0  0  0  0  0  0  0
   31.0705   28.0666   31.5482 H   0  0  0  0  0  0  0  0  0  0  0  0
   28.8853   26.9770   31.3744 H   0  0  0  0  0  0  0  0  0  0  0  0
   27.1527   25.5362   31.7652 H   0  0  0  0  0  0  0  0  0  0  0  0
   25.6755   26.5398   31.7000 H   0  0  0  0  0  0  0  0  0  0  0  0
   32.1922   29.6552   36.2195 H   0  0  0  0  0  0  0  0  0  0  0  0
   31.3444   28.0778   36.4521 H   0  0  0  0  0  0  0  0  0  0  0  0
   30.1235   28.9430   38.3927 H   0  0  0  0  0  0  0  0  0  0  0  0
   31.8846   29.2209   38.6283 H   0  0  0  0  0  0  0  0  0  0  0  0
   31.7264   32.7872   38.4952 H   0  0  0  0  0  0  0  0  0  0  0  0
   32.5787   31.3388   39.1101 H   0  0  0  0  0  0  0  0  0  0  0  0
   31.1176   31.9309   39.9754 H   0  0  0  0  0  0  0  0  0  0  0  0
   28.8605   31.3817   34.0435 H   0  0  0  0  0  0  0  0  0  0  0  0
   27.5228   31.0819   35.2124 H   0  0  0  0  0  0  0  0  0  0  0  0
   27.6711   33.4277   33.2585 H   0  0  0  0  0  0  0  0  0  0  0  0
   27.3127   35.8439   33.6246 H   0  0  0  0  0  0  0  0  0  0  0  0
   27.7598   36.8478   35.8447 H   0  0  0  0  0  0  0  0  0  0  0  0
   28.5676   35.4479   37.7019 H   0  0  0  0  0  0  0  0  0  0  0  0
   27.7074   33.4980   39.0688 H   0  0  0  0  0  0  0  0  0  0  0  0
   29.4605   33.7828   39.4132 H   0  0  0  0  0  0  0  0  0  0  0  0
   28.7249   32.1348   39.6136 H   0  0  0  0  0  0  0  0  0  0  0  0
  1  2  1  0
  2  3  2  0
  2  4  1  0
  4  5  2  0
  5  6  1  0
  6  7  2  0
  7  8  1  0
  8  9  2  0
  9 10  1  0
 10 11  2  0
 11 12  1  0
 12 13  2  0
 13 14  1  0
  8 15  1  0
 15 16  1  0
 16 17  1  0
 17 18  1  0
 18 19  1  0
 18 20  1  0
 20 21  2  0
 21 22  1  0
 22 23  1  0
 23 24  2  0
 24 25  1  0
 25 26  2  0
 26 27  1  0
 27 28  2  0
 28 29  1  0
 29 30  1  0
 13  4  1  0
 21 15  1  0
 28 23  1  0
 12  7  1  0
 29 20  1  0
  1 31  1  0
  1 32  1  0
  9 33  1  0
 10 34  1  0
 11 35  1  0
 14 36  1  0
 14 37  1  0
 16 38  1  0
 16 39  1  0
 17 40  1  0
 17 41  1  0
 19 42  1  0
 19 43  1  0
 19 44  1  0
 22 45  1  0
 22 46  1  0
 24 47  1  0
 25 48  1  0
 26 49  1  0
 27 50  1  0
 30 51  1  0
 30 52  1  0
 30 53  1  0
M  END
$$$$
confid_2
     RDKit          3D

 53 57  0  0  0  0  0  0  0  0999 V2000
   24.2000   26.2400   35.6900 N   0  0  0  0  0  0  0  0  0  0  0  0
   24.8500   26.2800   34.4800 C   0  0  0  0  0  0  0  0  0  0  0  0
   24.3100   25.7400   33.5400 O   0  0  0  0  0  0  0  0  0  0  0  0
   26.1800   26.9700   34.4700 C   0  0  0  0  0  0  0  0  0  0  0  0
   26.6500   27.6000   35.5500 N   0  0  0  0  0  0  0  0  0  0  0  0
   27.7900   28.2700   35.6200 N   0  0  0  0  0  0  0  0  0  0  0  0
   28.5400   28.3000   34.5100 C   0  0  0  0  0  0  0  0  0  0  0  0
   29.7700   28.9400   34.5600 C   0  0  0  0  0  0  0  0  0  0  0  0
   30.7000   28.8900   33.5000 C   0  0  0  0  0  0  0  0  0  0  0  0
   30.3700   28.1400   32.3700 C   0  0  0  0  0  0  0  0  0  0  0  0
   29.1200   27.5200   32.2800 C   0  0  0  0  0  0  0  0  0  0  0  0
   28.2100   27.6100   33.3300 C   0  0  0  0  0  0  0  0  0  0  0  0
   26.9700   26.9700   33.3100 C   0  0  0  0  0  0  0  0  0  0  0  0
   26.5300   26.2400   32.2200 N   0  0  0  0  0  0  0  0  0  0  0  0
   30.1431   29.6733   35.7388 N   0  0  0  0  0  0  0  0  0  0  0  0
   30.6643   28.9241   36.8892 C   0  0  0  0  0  0  0  0  0  0  0  0
   31.6843   29.7678   37.6430 C   0  0  0  0  0  0  0  0  0  0  0  0
   31.0947   31.0754   37.9352 N   0  0  0  0  0  0  0  0  0  0  0  0
   30.9467   31.5181   39.3247 C   0  0  0  0  0  0  0  0  0  0  0  0
   30.4705   31.8007   36.8532 C   0  0  0  0  0  0  0  0  0  0  0  0
   29.9571   31.1099   35.8086 C   0  0  0  0  0  0  0  0  0  0  0  0
   29.2743   31.8423   34.6666 C   0  0  0  0  0  0  0  0  0  0  0  0
   28.7135   33.1778   35.0772 C   0  0  0  0  0  0  0  0  0  0  0  0
   27.6835   33.7734   34.3328 C   0  0  0  0  0  0  0  0  0  0  0  0
   27.2051   35.0384   34.6826 C   0  0  0  0  0  0  0  0  0  0  0  0
   27.7596   35.7205   35.7678 C   0  0  0  0  0  0  0  0  0  0  0  0
   28.7981   35.1425   36.5030 C   0  0  0  0  0  0  0  0  0  0  0  0
   29.2889   33.8703   36.1550 C   0  0  0  0  0  0  0  0  0  0  0  0
   30.3531   33.2417   36.8946 N   0  0  0  0  0  0  0  0  0  0  0  0
   31.3721   34.0567   37.5638 C   0  0  0  0  0  0  0  0  0  0  0  0
   24.5999   26.6518   36.5621 H   0  0  0  0  0  0  0  0  0  0  0  0
   23.2675   25.7748   35.7691 H   0  0  0  0  0  0  0  0  0  0  0  0
   31.6571   29.3914   33.5704 H   0  0  0  0  0  0  0  0  0  0  0  0
   31.0734   28.0606   31.5513 H   0  0  0  0  0  0  0  0  0  0  0  0
   28.8952   26.9546   31.3855 H   0  0  0  0  0  0  0  0  0  0  0  0
   26.6265   26.6231   31.2536 H   0  0  0  0  0  0  0  0  0  0  0  0
   26.3241   25.2204   32.3142 H   0  0  0  0  0  0  0  0  0  0  0  0
   31.1505   27.9815   36.5537 H   0  0  0  0  0  0  0  0  0  0  0  0
   29.8241   28.6655   37.5689 H   0  0  0  0  0  0  0  0  0  0  0  0
   31.9943   29.2405   38.5713 H   0  0  0  0  0  0  0  0  0  0  0  0
   32.5877   29.9094   37.0108 H   0  0  0  0  0  0  0  0  0  0  0  0
   31.8114   32.1488   39.6145 H   0  0  0  0  0  0  0  0  0  0  0  0
   30.0044   32.0928   39.4505 H   0  0  0  0  0  0  0  0  0  0  0  0
   30.8993   30.6491   40.0142 H   0  0  0  0  0  0  0  0  0  0  0  0
   30.0104   31.9971   33.8497 H   0  0  0  0  0  0  0  0  0  0  0  0
   28.4436   31.2179   34.2747 H   0  0  0  0  0  0  0  0  0  0  0  0
   27.2535   33.2587   33.4824 H   0  0  0  0  0  0  0  0  0  0  0  0
   26.4060   35.4916   34.1104 H   0  0  0  0  0  0  0  0  0  0  0  0
   27.3847   36.6988   36.0394 H   0  0  0  0  0  0  0  0  0  0  0  0
   29.2065   35.6832   37.3466 H   0  0  0  0  0  0  0  0  0  0  0  0
   31.0151   34.3543   38.5718 H   0  0  0  0  0  0  0  0  0  0  0  0
   32.3274   33.4976   37.6542 H   0  0  0  0  0  0  0  0  0  0  0  0
   31.5863   34.9702   36.9690 H   0  0  0  0  0  0  0  0  0  0  0  0
  1  2  1  0
  2  3  2  0
  2  4  1  0
  4  5  2  0
  5  6  1  0
  6  7  2  0
  7  8  1  0
  8  9  2  0
  9 10  1  0
 10 11  2  0
 11 12  1  0
 12 13  2  0
 13 14  1  0
  8 15  1  0
 15 16  1  0
 16 17  1  0
 17 18  1  0
 18 19  1  0
 18 20  1  0
 20 21  2  0
 21 22  1  0
 22 23  1  0
 23 24  2  0
 24 25  1  0
 25 26  2  0
 26 27  1  0
 27 28  2  0
 28 29  1  0
 29 30  1  0
 13  4  1  0
 21 15  1  0
 28 23  1  0
 12  7  1  0
 29 20  1  0
  1 31  1  0
  1 32  1  0
  9 33  1  0
 10 34  1  0
 11 35  1  0
 14 36  1  0
 14 37  1  0
 16 38  1  0
 16 39  1  0
 17 40  1  0
 17 41  1  0
 19 42  1  0
 19 43  1  0
 19 44  1  0
 22 45  1  0
 22 46  1  0
 24 47  1  0
 25 48  1  0
 26 49  1  0
 27 50  1  0
 30 51  1  0
 30 52  1  0
 30 53  1  0
M  END
$$$$
confid_3
     RDKit          3D

 53 57  0  0  0  0  0  0  0  0999 V2000
   24.2000   26.2400   35.6900 N   0  0  0  0  0  0  0  0  0  0  0  0
   24.8500   26.2800   34.4800 C   0  0  0  0  0  0  0  0  0  0  0  0
   24.3100   25.7400   33.5400 O   0  0  0  0  0  0  0  0  0  0  0  0
   26.1800   26.9700   34.4700 C   0  0  0  0  0  0  0  0  0  0  0  0
   26.6500   27.6000   35.5500 N   0  0  0  0  0  0  0  0  0  0  0  0
   27.7900   28.2700   35.6200 N   0  0  0  0  0  0  0  0  0  0  0  0
   28.5400   28.3000   34.5100 C   0  0  0  0  0  0  0  0  0  0  0  0
   29.7700   28.9400   34.5600 C   0  0  0  0  0  0  0  0  0  0  0  0
   30.7000   28.8900   33.5000 C   0  0  0  0  0  0  0  0  0  0  0  0
   30.3700   28.1400   32.3700 C   0  0  0  0  0  0  0  0  0  0  0  0
   29.1200   27.5200   32.2800 C   0  0  0  0  0  0  0  0  0  0  0  0
   28.2100   27.6100   33.3300 C   0  0  0  0  0  0  0  0  0  0  0  0
   26.9700   26.9700   33.3100 C   0  0  0  0  0  0  0  0  0  0  0  0
   26.5300   26.2400   32.2200 N   0  0  0  0  0  0  0  0  0  0  0  0
   30.1472   29.6618   35.7457 N   0  0  0  0  0  0  0  0  0  0  0  0
   29.4966   30.9505   36.0141 C   0  0  0  0  0  0  0  0  0  0  0  0
   30.4666   31.8836   36.7270 C   0  0  0  0  0  0  0  0  0  0  0  0
   31.0212   31.1909   37.8918 N   0  0  0  0  0  0  0  0  0  0  0  0
   30.8111   31.7361   39.2364 C   0  0  0  0  0  0  0  0  0  0  0  0
   31.5604   29.8634   37.7057 C   0  0  0  0  0  0  0  0  0  0  0  0
   31.0922   29.0988   36.6913 C   0  0  0  0  0  0  0  0  0  0  0  0
   31.6134   27.6858   36.4931 C   0  0  0  0  0  0  0  0  0  0  0  0
   32.1389   27.0703   37.7627 C   0  0  0  0  0  0  0  0  0  0  0  0
   32.2220   25.6753   37.8934 C   0  0  0  0  0  0  0  0  0  0  0  0
   32.7639   25.1094   39.0501 C   0  0  0  0  0  0  0  0  0  0  0  0
   33.2380   25.9312   40.0751 C   0  0  0  0  0  0  0  0  0  0  0  0
   33.1771   27.3213   39.9443 C   0  0  0  0  0  0  0  0  0  0  0  0
   32.6348   27.8999   38.7816 C   0  0  0  0  0  0  0  0  0  0  0  0
   32.5485   29.3283   38.6164 N   0  0  0  0  0  0  0  0  0  0  0  0
   33.5326   30.2080   39.2549 C   0  0  0  0  0  0  0  0  0  0  0  0
   23.2673   25.7755   35.7689 H   0  0  0  0  0  0  0  0  0  0  0  0
   24.5990   26.6537   36.5619 H   0  0  0  0  0  0  0  0  0  0  0  0
   31.6583   29.3892   33.5711 H   0  0  0  0  0  0  0  0  0  0  0  0
   31.0739   28.0596   31.5518 H   0  0  0  0  0  0  0  0  0  0  0  0
   28.8952   26.9542   31.3857 H   0  0  0  0  0  0  0  0  0  0  0  0
   26.6248   26.6239   31.2537 H   0  0  0  0  0  0  0  0  0  0  0  0
   26.3250   25.2201   32.3140 H   0  0  0  0  0  0  0  0  0  0  0  0
   29.1667   31.4266   35.0645 H   0  0  0  0  0  0  0  0  0  0  0  0
   28.6042   30.7845   36.6553 H   0  0  0  0  0  0  0  0  0  0  0  0
   29.9419   32.8198   37.0162 H   0  0  0  0  0  0  0  0  0  0  0  0
   31.2949   32.1540   36.0368 H   0  0  0  0  0  0  0  0  0  0  0  0
   30.6310   30.9153   39.9633 H   0  0  0  0  0  0  0  0  0  0  0  0
   31.6971   32.3257   39.5483 H   0  0  0  0  0  0  0  0  0  0  0  0
   29.9222   32.4015   39.2613 H   0  0  0  0  0  0  0  0  0  0  0  0
   30.7943   27.0446   36.1032 H   0  0  0  0  0  0  0  0  0  0  0  0
   32.4298   27.7074   35.7406 H   0  0  0  0  0  0  0  0  0  0  0  0
   31.8685   25.0284   37.0999 H   0  0  0  0  0  0  0  0  0  0  0  0
   32.8178   24.0334   39.1514 H   0  0  0  0  0  0  0  0  0  0  0  0
   33.6536   25.4905   40.9721 H   0  0  0  0  0  0  0  0  0  0  0  0
   33.5402   27.9401   40.7541 H   0  0  0  0  0  0  0  0  0  0  0  0
   33.6419   31.1559   38.6864 H   0  0  0  0  0  0  0  0  0  0  0  0
   34.5309   29.7212   39.2693 H   0  0  0  0  0  0  0  0  0  0  0  0
   33.2207   30.4292   40.2970 H   0  0  0  0  0  0  0  0  0  0  0  0
  1  2  1  0
  2  3  2  0
  2  4  1  0
  4  5  2  0
  5  6  1  0
  6  7  2  0
  7  8  1  0
  8  9  2  0
  9 10  1  0
 10 11  2  0
 11 12  1  0
 12 13  2  0
 13 14  1  0
  8 15  1  0
 15 16  1  0
 16 17  1  0
 17 18  1  0
 18 19  1  0
 18 20  1  0
 20 21  2  0
 21 22  1  0
 22 23  1  0
 23 24  2  0
 24 25  1  0
 25 26  2  0
 26 27  1  0
 27 28  2  0
 28 29  1  0
 29 30  1  0
 13  4  1  0
 21 15  1  0
 28 23  1  0
 12  7  1  0
 29 20  1  0
  1 31  1  0
  1 32  1  0
  9 33  1  0
 10 34  1  0
 11 35  1  0
 14 36  1  0
 14 37  1  0
 16 38  1  0
 16 39  1  0
 17 40  1  0
 17 41  1  0
 19 42  1  0
 19 43  1  0
 19 44  1  0
 22 45  1  0
 22 46  1  0
 24 47  1  0
 25 48  1  0
 26 49  1  0
 27 50  1  0
 30 51  1  0
 30 52  1  0
 30 53  1  0
M  END
$$$$
confid_4
     RDKit          3D

 53 57  0  0  0  0  0  0  0  0999 V2000
   24.2000   26.2400   35.6900 N   0  0  0  0  0  0  0  0  0  0  0  0
   24.8500   26.2800   34.4800 C   0  0  0  0  0  0  0  0  0  0  0  0
   24.3100   25.7400   33.5400 O   0  0  0  0  0  0  0  0  0  0  0  0
   26.1800   26.9700   34.4700 C   0  0  0  0  0  0  0  0  0  0  0  0
   26.6500   27.6000   35.5500 N   0  0  0  0  0  0  0  0  0  0  0  0
   27.7900   28.2700   35.6200 N   0  0  0  0  0  0  0  0  0  0  0  0
   28.5400   28.3000   34.5100 C   0  0  0  0  0  0  0  0  0  0  0  0
   29.7700   28.9400   34.5600 C   0  0  0  0  0  0  0  0  0  0  0  0
   30.7000   28.8900   33.5000 C   0  0  0  0  0  0  0  0  0  0  0  0
   30.3700   28.1400   32.3700 C   0  0  0  0  0  0  0  0  0  0  0  0
   29.1200   27.5200   32.2800 C   0  0  0  0  0  0  0  0  0  0  0  0
   28.2100   27.6100   33.3300 C   0  0  0  0  0  0  0  0  0  0  0  0
   26.9700   26.9700   33.3100 C   0  0  0  0  0  0  0  0  0  0  0  0
   26.5300   26.2400   32.2200 N   0  0  0  0  0  0  0  0  0  0  0  0
   30.1301   29.6797   35.7383 N   0  0  0  0  0  0  0  0  0  0  0  0
   31.1262   29.1100   36.6442 C   0  0  0  0  0  0  0  0  0  0  0  0
   30.8015   29.5156   38.0758 C   0  0  0  0  0  0  0  0  0  0  0  0
   30.5561   30.9618   38.1810 N   0  0  0  0  0  0  0  0  0  0  0  0
   30.4277   31.5156   39.5336 C   0  0  0  0  0  0  0  0  0  0  0  0
   30.0865   31.7180   37.0315 C   0  0  0  0  0  0  0  0  0  0  0  0
   29.7624   31.0685   35.8892 C   0  0  0  0  0  0  0  0  0  0  0  0
   29.1249   31.8153   34.7282 C   0  0  0  0  0  0  0  0  0  0  0  0
   28.4276   33.0805   35.1542 C   0  0  0  0  0  0  0  0  0  0  0  0
   27.4259   33.6484   34.3514 C   0  0  0  0  0  0  0  0  0  0  0  0
   26.8361   34.8615   34.7177 C   0  0  0  0  0  0  0  0  0  0  0  0
   27.2515   35.5194   35.8782 C   0  0  0  0  0  0  0  0  0  0  0  0
   28.2609   34.9687   36.6729 C   0  0  0  0  0  0  0  0  0  0  0  0
   28.8572   33.7474   36.3113 C   0  0  0  0  0  0  0  0  0  0  0  0
   29.8960   33.1505   37.1077 N   0  0  0  0  0  0  0  0  0  0  0  0
   30.8869   34.0058   37.7673 C   0  0  0  0  0  0  0  0  0  0  0  0
   23.2724   25.7655   35.7714 H   0  0  0  0  0  0  0  0  0  0  0  0
   24.5945   26.6618   36.5597 H   0  0  0  0  0  0  0  0  0  0  0  0
   31.6557   29.3943   33.5683 H   0  0  0  0  0  0  0  0  0  0  0  0
   31.0732   28.0613   31.5510 H   0  0  0  0  0  0  0  0  0  0  0  0
   28.8951   26.9548   31.3854 H   0  0  0  0  0  0  0  0  0  0  0  0
   26.3237   25.2205   32.3143 H   0  0  0  0  0  0  0  0  0  0  0  0
   26.6267   26.6228   31.2536 H   0  0  0  0  0  0  0  0  0  0  0  0
   32.1341   29.4874   36.3654 H   0  0  0  0  0  0  0  0  0  0  0  0
   31.1313   27.9997   36.5734 H   0  0  0  0  0  0  0  0  0  0  0  0
   29.8939   28.9677   38.4112 H   0  0  0  0  0  0  0  0  0  0  0  0
   31.6514   29.2274   38.7320 H   0  0  0  0  0  0  0  0  0  0  0  0
   31.2923   32.1706   39.7618 H   0  0  0  0  0  0  0  0  0  0  0  0
   29.4784   32.0848   39.6308 H   0  0  0  0  0  0  0  0  0  0  0  0
   30.4144   30.7093   40.2987 H   0  0  0  0  0  0  0  0  0  0  0  0
   29.9148   32.0708   33.9908 H   0  0  0  0  0  0  0  0  0  0  0  0
   28.3816   31.1581   34.2295 H   0  0  0  0  0  0  0  0  0  0  0  0
   27.1072   33.1551   33.4413 H   0  0  0  0  0  0  0  0  0  0  0  0
   26.0600   35.2943   34.0995 H   0  0  0  0  0  0  0  0  0  0  0  0
   26.7926   36.4579   36.1612 H   0  0  0  0  0  0  0  0  0  0  0  0
   28.5660   35.4869   37.5728 H   0  0  0  0  0  0  0  0  0  0  0  0
   30.5106   34.3224   38.7623 H   0  0  0  0  0  0  0  0  0  0  0  0
   31.0837   34.9105   37.1534 H   0  0  0  0  0  0  0  0  0  0  0  0
   31.8548   33.4730   37.8801 H   0  0  0  0  0  0  0  0  0  0  0  0
  1  2  1  0
  2  3  2  0
  2  4  1  0
  4  5  2  0
  5  6  1  0
  6  7  2  0
  7  8  1  0
  8  9  2  0
  9 10  1  0
 10 11  2  0
 11 12  1  0
 12 13  2  0
 13 14  1  0
  8 15  1  0
 15 16  1  0
 16 17  1  0
 17 18  1  0
 18 19  1  0
 18 20  1  0
 20 21  2  0
 21 22  1  0
 22 23  1  0
 23 24  2  0
 24 25  1  0
 25 26  2  0
 26 27  1  0
 27 28  2  0
 28 29  1  0
 29 30  1  0
 13  4  1  0
 21 15  1  0
 28 23  1  0
 12  7  1  0
 29 20  1  0
  1 31  1  0
  1 32  1  0
  9 33  1  0
 10 34  1  0
 11 35  1  0
 14 36  1  0
 14 37  1  0
 16 38  1  0
 16 39  1  0
 17 40  1  0
 17 41  1  0
 19 42  1  0
 19 43  1  0
 19 44  1  0
 22 45  1  0
 22 46  1  0
 24 47  1  0
 25 48  1  0
 26 49  1  0
 27 50  1  0
 30 51  1  0
 30 52  1  0
 30 53  1  0
M  END
$$$$
confid_5
     RDKit          3D

 53 57  0  0  0  0  0  0  0  0999 V2000
   24.2000   26.2400   35.6900 N   0  0  0  0  0  0  0  0  0  0  0  0
   24.8500   26.2800   34.4800 C   0  0  0  0  0  0  0  0  0  0  0  0
   24.3100   25.7400   33.5400 O   0  0  0  0  0  0  0  0  0  0  0  0
   26.1800   26.9700   34.4700 C   0  0  0  0  0  0  0  0  0  0  0  0
   26.6500   27.6000   35.5500 N   0  0  0  0  0  0  0  0  0  0  0  0
   27.7900   28.2700   35.6200 N   0  0  0  0  0  0  0  0  0  0  0  0
   28.5400   28.3000   34.5100 C   0  0  0  0  0  0  0  0  0  0  0  0
   29.7700   28.9400   34.5600 C   0  0  0  0  0  0  0  0  0  0  0  0
   30.7000   28.8900   33.5000 C   0  0  0  0  0  0  0  0  0  0  0  0
   30.3700   28.1400   32.3700 C   0  0  0  0  0  0  0  0  0  0  0  0
   29.1200   27.5200   32.2800 C   0  0  0  0  0  0  0  0  0  0  0  0
   28.2100   27.6100   33.3300 C   0  0  0  0  0  0  0  0  0  0  0  0
   26.9700   26.9700   33.3100 C   0  0  0  0  0  0  0  0  0  0  0  0
   26.5300   26.2400   32.2200 N   0  0  0  0  0  0  0  0  0  0  0  0
   30.1486   29.6581   35.7458 N   0  0  0  0  0  0  0  0  0  0  0  0
   30.8169   28.9067   36.8172 C   0  0  0  0  0  0  0  0  0  0  0  0
   31.7144   29.8294   37.6333 C   0  0  0  0  0  0  0  0  0  0  0  0
   30.9429   31.0056   38.0302 N   0  0  0  0  0  0  0  0  0  0  0  0
   30.7506   31.3015   39.4516 C   0  0  0  0  0  0  0  0  0  0  0  0
   30.2237   31.7251   37.0080 C   0  0  0  0  0  0  0  0  0  0  0  0
   29.7843   31.0524   35.9199 C   0  0  0  0  0  0  0  0  0  0  0  0
   29.0156   31.7788   34.8292 C   0  0  0  0  0  0  0  0  0  0  0  0
   28.3323   33.0284   35.3187 C   0  0  0  0  0  0  0  0  0  0  0  0
   27.2504   33.5679   34.6058 C   0  0  0  0  0  0  0  0  0  0  0  0
   26.6581   34.7622   35.0239 C   0  0  0  0  0  0  0  0  0  0  0  0
   27.1468   35.4282   36.1497 C   0  0  0  0  0  0  0  0  0  0  0  0
   28.2336   34.9063   36.8564 C   0  0  0  0  0  0  0  0  0  0  0  0
   28.8405   33.7071   36.4384 C   0  0  0  0  0  0  0  0  0  0  0  0
   29.9606   33.1403   37.1438 N   0  0  0  0  0  0  0  0  0  0  0  0
   30.8898   34.0058   37.8784 C   0  0  0  0  0  0  0  0  0  0  0  0
   24.5983   26.6552   36.5613 H   0  0  0  0  0  0  0  0  0  0  0  0
   23.2665   25.7768   35.7688 H   0  0  0  0  0  0  0  0  0  0  0  0
   31.6575   29.3904   33.5712 H   0  0  0  0  0  0  0  0  0  0  0  0
   31.0713   28.0651   31.5489 H   0  0  0  0  0  0  0  0  0  0  0  0
   28.8856   26.9765   31.3746 H   0  0  0  0  0  0  0  0  0  0  0  0
   25.6757   26.5399   31.6998 H   0  0  0  0  0  0  0  0  0  0  0  0
   27.1523   25.5354   31.7658 H   0  0  0  0  0  0  0  0  0  0  0  0
   30.0475   28.4577   37.4820 H   0  0  0  0  0  0  0  0  0  0  0  0
   31.4362   28.0873   36.3900 H   0  0  0  0  0  0  0  0  0  0  0  0
   32.1076   29.2841   38.5196 H   0  0  0  0  0  0  0  0  0  0  0  0
   32.5787   30.1522   37.0133 H   0  0  0  0  0  0  0  0  0  0  0  0
   30.5682   30.3623   40.0160 H   0  0  0  0  0  0  0  0  0  0  0  0
   29.8665   31.9550   39.6064 H   0  0  0  0  0  0  0  0  0  0  0  0
   31.6566   31.7986   39.8571 H   0  0  0  0  0  0  0  0  0  0  0  0
   28.2432   31.1016   34.4088 H   0  0  0  0  0  0  0  0  0  0  0  0
   29.7208   32.0500   34.0154 H   0  0  0  0  0  0  0  0  0  0  0  0
   26.8701   33.0666   33.7244 H   0  0  0  0  0  0  0  0  0  0  0  0
   25.8229   35.1739   34.4722 H   0  0  0  0  0  0  0  0  0  0  0  0
   26.6850   36.3522   36.4733 H   0  0  0  0  0  0  0  0  0  0  0  0
   28.5908   35.4342   37.7305 H   0  0  0  0  0  0  0  0  0  0  0  0
   31.8827   33.5207   37.9874 H   0  0  0  0  0  0  0  0  0  0  0  0
   30.4785   34.2362   38.8832 H   0  0  0  0  0  0  0  0  0  0  0  0
   31.0494   34.9546   37.3231 H   0  0  0  0  0  0  0  0  0  0  0  0
  1  2  1  0
  2  3  2  0
  2  4  1  0
  4  5  2  0
  5  6  1  0
  6  7  2  0
  7  8  1  0
  8  9  2  0
  9 10  1  0
 10 11  2  0
 11 12  1  0
 12 13  2  0
 13 14  1  0
  8 15  1  0
 15 16  1  0
 16 17  1  0
 17 18  1  0
 18 19  1  0
 18 20  1  0
 20 21  2  0
 21 22  1  0
 22 23  1  0
 23 24  2  0
 24 25  1  0
 25 26  2  0
 26 27  1  0
 27 28  2  0
 28 29  1  0
 29 30  1  0
 13  4  1  0
 21 15  1  0
 28 23  1  0
 12  7  1  0
 29 20  1  0
  1 31  1  0
  1 32  1  0
  9 33  1  0
 10 34  1  0
 11 35  1  0
 14 36  1  0
 14 37  1  0
 16 38  1  0
 16 39  1  0
 17 40  1  0
 17 41  1  0
 19 42  1  0
 19 43  1  0
 19 44  1  0
 22 45  1  0
 22 46  1  0
 24 47  1  0
 25 48  1  0
 26 49  1  0
 27 50  1  0
 30 51  1  0
 30 52  1  0
 30 53  1  0
M  END
$$$$
confid_6
     RDKit          3D

 53 57  0  0  0  0  0  0  0  0999 V2000
   24.2000   26.2400   35.6900 N   0  0  0  0  0  0  0  0  0  0  0  0
   24.8500   26.2800   34.4800 C   0  0  0  0  0  0  0  0  0  0  0  0
   24.3100   25.7400   33.5400 O   0  0  0  0  0  0  0  0  0  0  0  0
   26.1800   26.9700   34.4700 C   0  0  0  0  0  0  0  0  0  0  0  0
   26.6500   27.6000   35.5500 N   0  0  0  0  0  0  0  0  0  0  0  0
   27.7900   28.2700   35.6200 N   0  0  0  0  0  0  0  0  0  0  0  0
   28.5400   28.3000   34.5100 C   0  0  0  0  0  0  0  0  0  0  0  0
   29.7700   28.9400   34.5600 C   0  0  0  0  0  0  0  0  0  0  0  0
   30.7000   28.8900   33.5000 C   0  0  0  0  0  0  0  0  0  0  0  0
   30.3700   28.1400   32.3700 C   0  0  0  0  0  0  0  0  0  0  0  0
   29.1200   27.5200   32.2800 C   0  0  0  0  0  0  0  0  0  0  0  0
   28.2100   27.6100   33.3300 C   0  0  0  0  0  0  0  0  0  0  0  0
   26.9700   26.9700   33.3100 C   0  0  0  0  0  0  0  0  0  0  0  0
   26.5300   26.2400   32.2200 N   0  0  0  0  0  0  0  0  0  0  0  0
   30.1448   29.6652   35.7428 N   0  0  0  0  0  0  0  0  0  0  0  0
   29.6349   31.0340   35.8987 C   0  0  0  0  0  0  0  0  0  0  0  0
   30.5912   31.8599   36.7503 C   0  0  0  0  0  0  0  0  0  0  0  0
   30.8808   31.1225   37.9786 N   0  0  0  0  0  0  0  0  0  0  0  0
   30.5469   31.7162   39.2754 C   0  0  0  0  0  0  0  0  0  0  0  0
   31.3170   29.7522   37.8627 C   0  0  0  0  0  0  0  0  0  0  0  0
   30.9118   29.0247   36.7962 C   0  0  0  0  0  0  0  0  0  0  0  0
   31.3473   27.5769   36.6464 C   0  0  0  0  0  0  0  0  0  0  0  0
   31.6945   26.9269   37.9599 C   0  0  0  0  0  0  0  0  0  0  0  0
   31.6560   25.5300   38.0914 C   0  0  0  0  0  0  0  0  0  0  0  0
   32.0222   24.9280   39.2975 C   0  0  0  0  0  0  0  0  0  0  0  0
   32.4456   25.7137   40.3716 C   0  0  0  0  0  0  0  0  0  0  0  0
   32.5057   27.1041   40.2429 C   0  0  0  0  0  0  0  0  0  0  0  0
   32.1348   27.7197   39.0327 C   0  0  0  0  0  0  0  0  0  0  0  0
   32.1573   29.1515   38.8750 N   0  0  0  0  0  0  0  0  0  0  0  0
   33.1136   29.9656   39.6342 C   0  0  0  0  0  0  0  0  0  0  0  0
   23.2719   25.7664   35.7712 H   0  0  0  0  0  0  0  0  0  0  0  0
   24.5929   26.6650   36.5590 H   0  0  0  0  0  0  0  0  0  0  0  0
   31.6584   29.3887   33.5719 H   0  0  0  0  0  0  0  0  0  0  0  0
   31.0738   28.0598   31.5517 H   0  0  0  0  0  0  0  0  0  0  0  0
   28.8954   26.9540   31.3858 H   0  0  0  0  0  0  0  0  0  0  0  0
   26.6288   26.6219   31.2532 H   0  0  0  0  0  0  0  0  0  0  0  0
   26.3238   25.2205   32.3146 H   0  0  0  0  0  0  0  0  0  0  0  0
   28.6372   30.9988   36.3881 H   0  0  0  0  0  0  0  0  0  0  0  0
   29.5233   31.5224   34.9054 H   0  0  0  0  0  0  0  0  0  0  0  0
   30.1402   32.8521   36.9690 H   0  0  0  0  0  0  0  0  0  0  0  0
   31.5382   32.0247   36.1914 H   0  0  0  0  0  0  0  0  0  0  0  0
   31.3163   32.4672   39.5523 H   0  0  0  0  0  0  0  0  0  0  0  0
   30.4818   30.9381   40.0643 H   0  0  0  0  0  0  0  0  0  0  0  0
   29.5548   32.2139   39.2214 H   0  0  0  0  0  0  0  0  0  0  0  0
   30.5301   26.9937   36.1720 H   0  0  0  0  0  0  0  0  0  0  0  0
   32.2351   27.5394   35.9804 H   0  0  0  0  0  0  0  0  0  0  0  0
   31.3390   24.9097   37.2619 H   0  0  0  0  0  0  0  0  0  0  0  0
   31.9767   23.8518   39.4000 H   0  0  0  0  0  0  0  0  0  0  0  0
   32.7254   25.2450   41.3062 H   0  0  0  0  0  0  0  0  0  0  0  0
   32.8239   27.6949   41.0922 H   0  0  0  0  0  0  0  0  0  0  0  0
   33.3024   30.9358   39.1269 H   0  0  0  0  0  0  0  0  0  0  0  0
   32.7229   30.1529   40.6559 H   0  0  0  0  0  0  0  0  0  0  0  0
   34.0893   29.4399   39.7081 H   0  0  0  0  0  0  0  0  0  0  0  0
  1  2  1  0
  2  3  2  0
  2  4  1  0
  4  5  2  0
  5  6  1  0
  6  7  2  0
  7  8  1  0
  8  9  2  0
  9 10  1  0
 10 11  2  0
 11 12  1  0
 12 13  2  0
 13 14  1  0
  8 15  1  0
 15 16  1  0
 16 17  1  0
 17 18  1  0
 18 19  1  0
 18 20  1  0
 20 21  2  0
 21 22  1  0
 22 23  1  0
 23 24  2  0
 24 25  1  0
 25 26  2  0
 26 27  1  0
 27 28  2  0
 28 29  1  0
 29 30  1  0
 13  4  1  0
 21 15  1  0
 28 23  1  0
 12  7  1  0
 29 20  1  0
  1 31  1  0
  1 32  1  0
  9 33  1  0
 10 34  1  0
 11 35  1  0
 14 36  1  0
 14 37  1  0
 16 38  1  0
 16 39  1  0
 17 40  1  0
 17 41  1  0
 19 42  1  0
 19 43  1  0
 19 44  1  0
 22 45  1  0
 22 46  1  0
 24 47  1  0
 25 48  1  0
 26 49  1  0
 27 50  1  0
 30 51  1  0
 30 52  1  0
 30 53  1  0
M  END
$$$$
