confid_0
     RDKit          3D

 42 45  0  0  0  0  0  0  0  0999 V2000
   24.4800   26.1000   36.1300 N   0  0  0  0  0  0  0  0  0  0  0  0
   25.2500   26.2500   34.9900 C   0  0  0  0  0  0  0  0  0  0  0  0
   24.7400   25.7600   33.9900 O   0  0  0  0  0  0  0  0  0  0  0  0
   26.5900   26.8900   34.9600 C   0  0  0  0  0  0  0  0  0  0  0  0
   27.0600   27.2400   36.1600 N   0  0  0  0  0  0  0  0  0  0  0  0
   28.3000   27.7100   36.2400 N   0  0  0  0  0  0  0  0  0  0  0  0
   29.0500   27.9600   35.1500 C   0  0  0  0  0  0  0  0  0  0  0  0
   30.3400   28.4900   35.2600 C   0  0  0  0  0  0  0  0  0  0  0  0
   31.1100   28.8200   34.1400 C   0  0  0  0  0  0  0  0  0  0  0  0
   30.5200   28.6700   32.8800 C   0  0  0  0  0  0  0  0  0  0  0  0
   29.2900   28.0200   32.7700 C   0  0  0  0  0  0  0  0  0  0  0  0
   28.5200   27.7100   33.8900 C   0  0  0  0  0  0  0  0  0  0  0  0
   27.2700   27.0800   33.7600 C   0  0  0  0  0  0  0  0  0  0  0  0
   26.7500   26.8800   32.4900 N   0  0  0  0  0  0  0  0  0  0  0  0
   23.0424   25.9808   36.1441 C   0  0  0  0  0  0  0  0  0  0  0  0
   22.3143   26.2818   35.0332 N   0  0  0  0  0  0  0  0  0  0  0  0
   20.9595   26.2011   35.0102 C   0  0  0  0  0  0  0  0  0  0  0  0
   20.2586   25.7941   36.1507 C   0  0  0  0  0  0  0  0  0  0  0  0
   18.7470   25.7511   36.1391 C   0  0  0  0  0  0  0  0  0  0  0  0
   18.1998   24.7896   37.1200 N   0  0  0  0  0  0  0  0  0  0  0  0
   18.4163   23.3930   36.7021 C   0  0  0  0  0  0  0  0  0  0  0  0
   18.7115   25.0452   38.4827 C   0  0  0  0  0  0  0  0  0  0  0  0
   20.2155   25.0864   38.5273 C   0  0  0  0  0  0  0  0  0  0  0  0
   20.8069   24.8083   39.6050 O   0  0  0  0  0  0  0  0  0  0  0  0
   20.9724   25.5027   37.3257 C   0  0  0  0  0  0  0  0  0  0  0  0
   22.3776   25.5923   37.3192 C   0  0  0  0  0  0  0  0  0  0  0  0
   23.0965   25.3006   38.4340 F   0  0  0  0  0  0  0  0  0  0  0  0
   24.9729   26.1159   37.0509 H   0  0  0  0  0  0  0  0  0  0  0  0
   30.7582   28.6623   36.2441 H   0  0  0  0  0  0  0  0  0  0  0  0
   32.0994   29.2455   34.2469 H   0  0  0  0  0  0  0  0  0  0  0  0
   31.0716   28.9442   31.9898 H   0  0  0  0  0  0  0  0  0  0  0  0
   28.9437   27.8129   31.7669 H   0  0  0  0  0  0  0  0  0  0  0  0
   26.7155   27.6567   31.7927 H   0  0  0  0  0  0  0  0  0  0  0  0
   26.3616   25.9529   32.2110 H   0  0  0  0  0  0  0  0  0  0  0  0
   20.4292   26.4570   34.1019 H   0  0  0  0  0  0  0  0  0  0  0  0
   18.3653   26.7676   36.3763 H   0  0  0  0  0  0  0  0  0  0  0  0
   18.3757   25.5022   35.1200 H   0  0  0  0  0  0  0  0  0  0  0  0
   17.9538   23.2166   35.7076 H   0  0  0  0  0  0  0  0  0  0  0  0
   19.4981   23.1448   36.6443 H   0  0  0  0  0  0  0  0  0  0  0  0
   17.9265   22.7003   37.4193 H   0  0  0  0  0  0  0  0  0  0  0  0
   18.3219   26.0226   38.8400 H   0  0  0  0  0  0  0  0  0  0  0  0
   18.3326   24.2712   39.1862 H   0  0  0  0  0  0  0  0  0  0  0  0
  1  2  1  0
  2  3  2  0
  2  4  1  0
  4  5  2  0
  5  6  1  0
  6  7  2  0
  7  8  1  0
  8  9  2  0
  9 10  1  0
 10 11  2  0
 11 12  1  0
 12 13  2  0
 13 14  1  0
  1 15  1  0
 15 16  2  0
 16 17  1  0
 17 18  2  0
 18 19  1  0
 19 20  1  0
 20 21  1  0
 20 22  1  0
 22 23  1  0
 23 24  2  0
 23 25  1  0
 25 26  2  0
 26 27  1  0
 13  4  1  0
 26 15  1  0
 12  7  1  0
 25 18  1  0
  1 28  1  0
  8 29  1  0
  9 30  1  0
 10 31  1  0
 11 32  1  0
 14 33  1  0
 14 34  1  0
 17 35  1  0
 19 36  1  0
 19 37  1  0
 21 38  1  0
 21 39  1  0
 21 40  1  0
 22 41  1  0
 22 42  1  0
M  END
$$$$
confid_1
     RDKit          3D

 42 45  0  0  0  0  0  0  0  0999 V2000
   24.4800   26.1000   36.1300 N   0  0  0  0  0  0  0  0  0  0  0  0
   25.2500   26.2500   34.9900 C   0  0  0  0  0  0  0  0  0  0  0  0
   24.7400   25.7600   33.9900 O   0  0  0  0  0  0  0  0  0  0  0  0
   26.5900   26.8900   34.9600 C   0  0  0  0  0  0  0  0  0  0  0  0
   27.0600   27.2400   36.1600 N   0  0  0  0  0  0  0  0  0  0  0  0
   28.3000   27.7100   36.2400 N   0  0  0  0  0  0  0  0  0  0  0  0
   29.0500   27.9600   35.1500 C   0  0  0  0  0  0  0  0  0  0  0  0
   30.3400   28.4900   35.2600 C   0  0  0  0  0  0  0  0  0  0  0  0
   31.1100   28.8200   34.1400 C   0  0  0  0  0  0  0  0  0  0  0  0
   30.5200   28.6700   32.8800 C   0  0  0  0  0  0  0  0  0  0  0  0
   29.2900   28.0200   32.7700 C   0  0  0  0  0  0  0  0  0  0  0  0
   28.5200   27.7100   33.8900 C   0  0  0  0  0  0  0  0  0  0  0  0
   27.2700   27.0800   33.7600 C   0  0  0  0  0  0  0  0  0  0  0  0
   26.7500   26.8800   32.4900 N   0  0  0  0  0  0  0  0  0  0  0  0
   23.4970   25.0648   36.3390 C   0  0  0  0  0  0  0  0  0  0  0  0
   23.4584   23.9743   35.5239 N   0  0  0  0  0  0  0  0  0  0  0  0
   22.5627   22.9695   35.6985 C   0  0  0  0  0  0  0  0  0  0  0  0
   21.6318   23.0290   36.7414 C   0  0  0  0  0  0  0  0  0  0  0  0
   20.6663   21.8867   36.9647 C   0  0  0  0  0  0  0  0  0  0  0  0
   19.4297   22.3160   37.6523 N   0  0  0  0  0  0  0  0  0  0  0  0
   18.5567   23.1110   36.7704 C   0  0  0  0  0  0  0  0  0  0  0  0
   19.7222   23.0174   38.9198 C   0  0  0  0  0  0  0  0  0  0  0  0
   20.6762   24.1656   38.7278 C   0  0  0  0  0  0  0  0  0  0  0  0
   20.6535   25.1272   39.5423 O   0  0  0  0  0  0  0  0  0  0  0  0
   21.6587   24.1240   37.6219 C   0  0  0  0  0  0  0  0  0  0  0  0
   22.5972   25.1530   37.4144 C   0  0  0  0  0  0  0  0  0  0  0  0
   22.6368   26.2322   38.2381 F   0  0  0  0  0  0  0  0  0  0  0  0
   24.6499   26.7719   36.9118 H   0  0  0  0  0  0  0  0  0  0  0  0
   30.7580   28.6629   36.2441 H   0  0  0  0  0  0  0  0  0  0  0  0
   32.0983   29.2479   34.2470 H   0  0  0  0  0  0  0  0  0  0  0  0
   31.0669   28.9543   31.9901 H   0  0  0  0  0  0  0  0  0  0  0  0
   28.9258   27.8587   31.7656 H   0  0  0  0  0  0  0  0  0  0  0  0
   27.2969   26.3787   31.7554 H   0  0  0  0  0  0  0  0  0  0  0  0
   25.7673   27.1503   32.2658 H   0  0  0  0  0  0  0  0  0  0  0  0
   22.5789   22.1227   35.0245 H   0  0  0  0  0  0  0  0  0  0  0  0
   21.1740   21.1138   37.5812 H   0  0  0  0  0  0  0  0  0  0  0  0
   20.4102   21.4027   35.9960 H   0  0  0  0  0  0  0  0  0  0  0  0
   17.6050   23.3503   37.2911 H   0  0  0  0  0  0  0  0  0  0  0  0
   18.2960   22.5252   35.8632 H   0  0  0  0  0  0  0  0  0  0  0  0
   19.0438   24.0598   36.4575 H   0  0  0  0  0  0  0  0  0  0  0  0
   18.7787   23.3819   39.3830 H   0  0  0  0  0  0  0  0  0  0  0  0
   20.1755   22.2993   39.6365 H   0  0  0  0  0  0  0  0  0  0  0  0
  1  2  1  0
  2  3  2  0
  2  4  1  0
  4  5  2  0
  5  6  1  0
  6  7  2  0
  7  8  1  0
  8  9  2  0
  9 10  1  0
 10 11  2  0
 11 12  1  0
 12 13  2  0
 13 14  1  0
  1 15  1  0
 15 16  2  0
 16 17  1  0
 17 18  2  0
 18 19  1  0
 19 20  1  0
 20 21  1  0
 20 22  1  0
 22 23  1  0
 23 24  2  0
 23 25  1  0
 25 26  2  0
 26 27  1  0
 13  4  1  0
 26 15  1  0
 12  7  1  0
 25 18  1  0
  1 28  1  0
  8 29  1  0
  9 30  1  0
 10 31  1  0
 11 32  1  0
 14 33  1  0
 14 34  1  0
 17 35  1  0
 19 36  1  0
 19 37  1  0
 21 38  1  0
 21 39  1  0
 21 40  1  0
 22 41  1  0
 22 42  1  0
M  END
$$$$
confid_2
     RDKit          3D

 42 45  0  0  0  0  0  0  0  0999 V2000
   24.4800   26.1000   36.1300 N   0  0  0  0  0  0  0  0  0  0  0  0
   25.2500   26.2500   34.9900 C   0  0  0  0  0  0  0  0  0  0  0  0
   24.7400   25.7600   33.9900 O   0  0  0  0  0  0  0  0  0  0  0  0
   26.5900   26.8900   34.9600 C   0  0  0  0  0  0  0  0  0  0  0  0
   27.0600   27.2400   36.1600 N   0  0  0  0  0  0  0  0  0  0  0  0
   28.3000   27.7100   36.2400 N   0  0  0  0  0  0  0  0  0  0  0  0
   29.0500   27.9600   35.1500 C   0  0  0  0  0  0  0  0  0  0  0  0
   30.3400   28.4900   35.2600 C   0  0  0  0  0  0  0  0  0  0  0  0
   31.1100   28.8200   34.1400 C   0  0  0  0  0  0  0  0  0  0  0  0
   30.5200   28.6700   32.8800 C   0  0  0  0  0  0  0  0  0  0  0  0
   29.2900   28.0200   32.7700 C   0  0  0  0  0  0  0  0  0  0  0  0
   28.5200   27.7100   33.8900 C   0  0  0  0  0  0  0  0  0  0  0  0
   27.2700   27.0800   33.7600 C   0  0  0  0  0  0  0  0  0  0  0  0
   26.7500   26.8800   32.4900 N   0  0  0  0  0  0  0  0  0  0  0  0
   23.4996   25.0626   36.3407 C   0  0  0  0  0  0  0  0  0  0  0  0
   23.4591   23.9740   35.5229 N   0  0  0  0  0  0  0  0  0  0  0  0
   22.5693   22.9645   35.7018 C   0  0  0  0  0  0  0  0  0  0  0  0
   21.6610   23.0071   36.7655 C   0  0  0  0  0  0  0  0  0  0  0  0
   20.6393   21.9107   36.9434 C   0  0  0  0  0  0  0  0  0  0  0  0
   20.2575   21.7810   38.3648 N   0  0  0  0  0  0  0  0  0  0  0  0
   19.2864   20.6882   38.5268 C   0  0  0  0  0  0  0  0  0  0  0  0
   19.6826   23.0442   38.8681 C   0  0  0  0  0  0  0  0  0  0  0  0
   20.6773   24.1606   38.7287 C   0  0  0  0  0  0  0  0  0  0  0  0
   20.6273   25.1377   39.5234 O   0  0  0  0  0  0  0  0  0  0  0  0
   21.6622   24.1210   37.6235 C   0  0  0  0  0  0  0  0  0  0  0  0
   22.5986   25.1513   37.4151 C   0  0  0  0  0  0  0  0  0  0  0  0
   22.6317   26.2342   38.2342 F   0  0  0  0  0  0  0  0  0  0  0  0
   24.6492   26.7726   36.9114 H   0  0  0  0  0  0  0  0  0  0  0  0
   30.7582   28.6623   36.2441 H   0  0  0  0  0  0  0  0  0  0  0  0
   32.0994   29.2455   34.2469 H   0  0  0  0  0  0  0  0  0  0  0  0
   31.0716   28.9442   31.9898 H   0  0  0  0  0  0  0  0  0  0  0  0
   28.9437   27.8129   31.7669 H   0  0  0  0  0  0  0  0  0  0  0  0
   26.7156   27.6566   31.7926 H   0  0  0  0  0  0  0  0  0  0  0  0
   26.3618   25.9528   32.2110 H   0  0  0  0  0  0  0  0  0  0  0  0
   22.5726   22.1277   35.0153 H   0  0  0  0  0  0  0  0  0  0  0  0
   19.7506   22.1427   36.3135 H   0  0  0  0  0  0  0  0  0  0  0  0
   21.0753   20.9496   36.5899 H   0  0  0  0  0  0  0  0  0  0  0  0
   19.0243   20.5654   39.5998 H   0  0  0  0  0  0  0  0  0  0  0  0
   18.3568   20.8836   37.9466 H   0  0  0  0  0  0  0  0  0  0  0  0
   19.7306   19.7282   38.1861 H   0  0  0  0  0  0  0  0  0  0  0  0
   18.7591   23.3130   38.3071 H   0  0  0  0  0  0  0  0  0  0  0  0
   19.4217   22.9340   39.9441 H   0  0  0  0  0  0  0  0  0  0  0  0
  1  2  1  0
  2  3  2  0
  2  4  1  0
  4  5  2  0
  5  6  1  0
  6  7  2  0
  7  8  1  0
  8  9  2  0
  9 10  1  0
 10 11  2  0
 11 12  1  0
 12 13  2  0
 13 14  1  0
  1 15  1  0
 15 16  2  0
 16 17  1  0
 17 18  2  0
 18 19  1  0
 19 20  1  0
 20 21  1  0
 20 22  1  0
 22 23  1  0
 23 24  2  0
 23 25  1  0
 25 26  2  0
 26 27  1  0
 13  4  1  0
 26 15  1  0
 12  7  1  0
 25 18  1  0
  1 28  1  0
  8 29  1  0
  9 30  1  0
 10 31  1  0
 11 32  1  0
 14 33  1  0
 14 34  1  0
 17 35  1  0
 19 36  1  0
 19 37  1  0
 21 38  1  0
 21 39  1  0
 21 40  1  0
 22 41  1  0
 22 42  1  0
M  END
$$$$
confid_3
     RDKit          3D

 42 45  0  0  0  0  0  0  0  0999 V2000
   24.4800   26.1000   36.1300 N   0  0  0  0  0  0  0  0  0  0  0  0
   25.2500   26.2500   34.9900 C   0  0  0  0  0  0  0  0  0  0  0  0
   24.7400   25.7600   33.9900 O   0  0  0  0  0  0  0  0  0  0  0  0
   26.5900   26.8900   34.9600 C   0  0  0  0  0  0  0  0  0  0  0  0
   27.0600   27.2400   36.1600 N   0  0  0  0  0  0  0  0  0  0  0  0
   28.3000   27.7100   36.2400 N   0  0  0  0  0  0  0  0  0  0  0  0
   29.0500   27.9600   35.1500 C   0  0  0  0  0  0  0  0  0  0  0  0
   30.3400   28.4900   35.2600 C   0  0  0  0  0  0  0  0  0  0  0  0
   31.1100   28.8200   34.1400 C   0  0  0  0  0  0  0  0  0  0  0  0
   30.5200   28.6700   32.8800 C   0  0  0  0  0  0  0  0  0  0  0  0
   29.2900   28.0200   32.7700 C   0  0  0  0  0  0  0  0  0  0  0  0
   28.5200   27.7100   33.8900 C   0  0  0  0  0  0  0  0  0  0  0  0
   27.2700   27.0800   33.7600 C   0  0  0  0  0  0  0  0  0  0  0  0
   26.7500   26.8800   32.4900 N   0  0  0  0  0  0  0  0  0  0  0  0
   23.4997   25.0625   36.3407 C   0  0  0  0  0  0  0  0  0  0  0  0
   23.4593   23.9740   35.5230 N   0  0  0  0  0  0  0  0  0  0  0  0
   22.5699   22.9645   35.7026 C   0  0  0  0  0  0  0  0  0  0  0  0
   21.6613   23.0071   36.7658 C   0  0  0  0  0  0  0  0  0  0  0  0
   20.6389   21.9059   36.9369 C   0  0  0  0  0  0  0  0  0  0  0  0
   20.1910   21.7611   38.3385 N   0  0  0  0  0  0  0  0  0  0  0  0
   21.2340   21.1634   39.1911 C   0  0  0  0  0  0  0  0  0  0  0  0
   19.6909   23.0381   38.8891 C   0  0  0  0  0  0  0  0  0  0  0  0
   20.6912   24.1529   38.7399 C   0  0  0  0  0  0  0  0  0  0  0  0
   20.6553   25.1234   39.5431 O   0  0  0  0  0  0  0  0  0  0  0  0
   21.6636   24.1193   37.6248 C   0  0  0  0  0  0  0  0  0  0  0  0
   22.6000   25.1500   37.4161 C   0  0  0  0  0  0  0  0  0  0  0  0
   22.6357   26.2314   38.2371 F   0  0  0  0  0  0  0  0  0  0  0  0
   24.6494   26.7724   36.9115 H   0  0  0  0  0  0  0  0  0  0  0  0
   30.7582   28.6623   36.2441 H   0  0  0  0  0  0  0  0  0  0  0  0
   32.0994   29.2455   34.2469 H   0  0  0  0  0  0  0  0  0  0  0  0
   31.0716   28.9442   31.9898 H   0  0  0  0  0  0  0  0  0  0  0  0
   28.9437   27.8129   31.7669 H   0  0  0  0  0  0  0  0  0  0  0  0
   26.3617   25.9528   32.2110 H   0  0  0  0  0  0  0  0  0  0  0  0
   26.7156   27.6566   31.7925 H   0  0  0  0  0  0  0  0  0  0  0  0
   22.5731   22.1277   35.0162 H   0  0  0  0  0  0  0  0  0  0  0  0
   21.0484   20.9383   36.5703 H   0  0  0  0  0  0  0  0  0  0  0  0
   19.7603   22.1407   36.2982 H   0  0  0  0  0  0  0  0  0  0  0  0
   22.1348   21.8114   39.2532 H   0  0  0  0  0  0  0  0  0  0  0  0
   21.5323   20.1714   38.7896 H   0  0  0  0  0  0  0  0  0  0  0  0
   20.8394   20.9972   40.2162 H   0  0  0  0  0  0  0  0  0  0  0  0
   19.4193   22.9136   39.9608 H   0  0  0  0  0  0  0  0  0  0  0  0
   18.7609   23.3257   38.3533 H   0  0  0  0  0  0  0  0  0  0  0  0
  1  2  1  0
  2  3  2  0
  2  4  1  0
  4  5  2  0
  5  6  1  0
  6  7  2  0
  7  8  1  0
  8  9  2  0
  9 10  1  0
 10 11  2  0
 11 12  1  0
 12 13  2  0
 13 14  1  0
  1 15  1  0
 15 16  2  0
 16 17  1  0
 17 18  2  0
 18 19  1  0
 19 20  1  0
 20 21  1  0
 20 22  1  0
 22 23  1  0
 23 24  2  0
 23 25  1  0
 25 26  2  0
 26 27  1  0
 13  4  1  0
 26 15  1  0
 12  7  1  0
 25 18  1  0
  1 28  1  0
  8 29  1  0
  9 30  1  0
 10 31  1  0
 11 32  1  0
 14 33  1  0
 14 34  1  0
 17 35  1  0
 19 36  1  0
 19 37  1  0
 21 38  1  0
 21 39  1  0
 21 40  1  0
 22 41  1  0
 22 42  1  0
M  END
$$$$
confid_4
     RDKit          3D

 42 45  0  0  0  0  0  0  0  0999 V2000
   24.4800   26.1000   36.1300 N   0  0  0  0  0  0  0  0  0  0  0  0
   25.2500   26.2500   34.9900 C   0  0  0  0  0  0  0  0  0  0  0  0
   24.7400   25.7600   33.9900 O   0  0  0  0  0  0  0  0  0  0  0  0
   26.5900   26.8900   34.9600 C   0  0  0  0  0  0  0  0  0  0  0  0
   27.0600   27.2400   36.1600 N   0  0  0  0  0  0  0  0  0  0  0  0
   28.3000   27.7100   36.2400 N   0  0  0  0  0  0  0  0  0  0  0  0
   29.0500   27.9600   35.1500 C   0  0  0  0  0  0  0  0  0  0  0  0
   30.3400   28.4900   35.2600 C   0  0  0  0  0  0  0  0  0  0  0  0
   31.1100   28.8200   34.1400 C   0  0  0  0  0  0  0  0  0  0  0  0
   30.5200   28.6700   32.8800 C   0  0  0  0  0  0  0  0  0  0  0  0
   29.2900   28.0200   32.7700 C   0  0  0  0  0  0  0  0  0  0  0  0
   28.5200   27.7100   33.8900 C   0  0  0  0  0  0  0  0  0  0  0  0
   27.2700   27.0800   33.7600 C   0  0  0  0  0  0  0  0  0  0  0  0
   26.7500   26.8800   32.4900 N   0  0  0  0  0  0  0  0  0  0  0  0
   23.4971   25.0647   36.3391 C   0  0  0  0  0  0  0  0  0  0  0  0
   23.4586   23.9741   35.5238 N   0  0  0  0  0  0  0  0  0  0  0  0
   22.5632   22.9688   35.6982 C   0  0  0  0  0  0  0  0  0  0  0  0
   21.6319   23.0286   36.7409 C   0  0  0  0  0  0  0  0  0  0  0  0
   20.6643   21.8931   36.9683 C   0  0  0  0  0  0  0  0  0  0  0  0
   19.4315   22.3825   37.6192 N   0  0  0  0  0  0  0  0  0  0  0  0
   18.4858   21.2714   37.8047 C   0  0  0  0  0  0  0  0  0  0  0  0
   19.7407   23.0035   38.9225 C   0  0  0  0  0  0  0  0  0  0  0  0
   20.6873   24.1547   38.7390 C   0  0  0  0  0  0  0  0  0  0  0  0
   20.6730   25.1062   39.5655 O   0  0  0  0  0  0  0  0  0  0  0  0
   21.6603   24.1232   37.6230 C   0  0  0  0  0  0  0  0  0  0  0  0
   22.5984   25.1522   37.4156 C   0  0  0  0  0  0  0  0  0  0  0  0
   22.6396   26.2296   38.2416 F   0  0  0  0  0  0  0  0  0  0  0  0
   24.6499   26.7720   36.9118 H   0  0  0  0  0  0  0  0  0  0  0  0
   30.7580   28.6629   36.2441 H   0  0  0  0  0  0  0  0  0  0  0  0
   32.0983   29.2479   34.2470 H   0  0  0  0  0  0  0  0  0  0  0  0
   31.0669   28.9543   31.9901 H   0  0  0  0  0  0  0  0  0  0  0  0
   28.9258   27.8587   31.7656 H   0  0  0  0  0  0  0  0  0  0  0  0
   25.7673   27.1503   32.2658 H   0  0  0  0  0  0  0  0  0  0  0  0
   27.2969   26.3787   31.7554 H   0  0  0  0  0  0  0  0  0  0  0  0
   22.5796   22.1221   35.0241 H   0  0  0  0  0  0  0  0  0  0  0  0
   21.1619   21.1174   37.5936 H   0  0  0  0  0  0  0  0  0  0  0  0
   20.4062   21.4364   35.9867 H   0  0  0  0  0  0  0  0  0  0  0  0
   18.2198   20.8275   36.8213 H   0  0  0  0  0  0  0  0  0  0  0  0
   18.9163   20.4780   38.4560 H   0  0  0  0  0  0  0  0  0  0  0  0
   17.5436   21.6433   38.2619 H   0  0  0  0  0  0  0  0  0  0  0  0
   18.8042   23.3848   39.3867 H   0  0  0  0  0  0  0  0  0  0  0  0
   20.2026   22.2649   39.6160 H   0  0  0  0  0  0  0  0  0  0  0  0
  1  2  1  0
  2  3  2  0
  2  4  1  0
  4  5  2  0
  5  6  1  0
  6  7  2  0
  7  8  1  0
  8  9  2  0
  9 10  1  0
 10 11  2  0
 11 12  1  0
 12 13  2  0
 13 14  1  0
  1 15  1  0
 15 16  2  0
 16 17  1  0
 17 18  2  0
 18 19  1  0
 19 20  1  0
 20 21  1  0
 20 22  1  0
 22 23  1  0
 23 24  2  0
 23 25  1  0
 25 26  2  0
 26 27  1  0
 13  4  1  0
 26 15  1  0
 12  7  1  0
 25 18  1  0
  1 28  1  0
  8 29  1  0
  9 30  1  0
 10 31  1  0
 11 32  1  0
 14 33  1  0
 14 34  1  0
 17 35  1  0
 19 36  1  0
 19 37  1  0
 21 38  1  0
 21 39  1  0
 21 40  1  0
 22 41  1  0
 22 42  1  0
M  END
$$$$
confid_5
     RDKit          3D

 42 45  0  0  0  0  0  0  0  0999 V2000
   24.4800   26.1000   36.1300 N   0  0  0  0  0  0  0  0  0  0  0  0
   25.2500   26.2500   34.9900 C   0  0  0  0  0  0  0  0  0  0  0  0
   24.7400   25.7600   33.9900 O   0  0  0  0  0  0  0  0  0  0  0  0
   26.5900   26.8900   34.9600 C   0  0  0  0  0  0  0  0  0  0  0  0
   27.0600   27.2400   36.1600 N   0  0  0  0  0  0  0  0  0  0  0  0
   28.3000   27.7100   36.2400 N   0  0  0  0  0  0  0  0  0  0  0  0
   29.0500   27.9600   35.1500 C   0  0  0  0  0  0  0  0  0  0  0  0
   30.3400   28.4900   35.2600 C   0  0  0  0  0  0  0  0  0  0  0  0
   31.1100   28.8200   34.1400 C   0  0  0  0  0  0  0  0  0  0  0  0
   30.5200   28.6700   32.8800 C   0  0  0  0  0  0  0  0  0  0  0  0
   29.2900   28.0200   32.7700 C   0  0  0  0  0  0  0  0  0  0  0  0
   28.5200   27.7100   33.8900 C   0  0  0  0  0  0  0  0  0  0  0  0
   27.2700   27.0800   33.7600 C   0  0  0  0  0  0  0  0  0  0  0  0
   26.7500   26.8800   32.4900 N   0  0  0  0  0  0  0  0  0  0  0  0
   23.0420   25.9863   36.1444 C   0  0  0  0  0  0  0  0  0  0  0  0
   22.3150   26.2856   35.0322 N   0  0  0  0  0  0  0  0  0  0  0  0
   20.9596   26.2152   35.0112 C   0  0  0  0  0  0  0  0  0  0  0  0
   20.2557   25.8411   36.1611 C   0  0  0  0  0  0  0  0  0  0  0  0
   18.7490   25.7164   36.1235 C   0  0  0  0  0  0  0  0  0  0  0  0
   18.1309   25.9101   37.4526 N   0  0  0  0  0  0  0  0  0  0  0  0
   18.1777   27.3193   37.8816 C   0  0  0  0  0  0  0  0  0  0  0  0
   18.7119   25.0038   38.4651 C   0  0  0  0  0  0  0  0  0  0  0  0
   20.2118   25.1110   38.5309 C   0  0  0  0  0  0  0  0  0  0  0  0
   20.8036   24.8123   39.6029 O   0  0  0  0  0  0  0  0  0  0  0  0
   20.9707   25.5125   37.3255 C   0  0  0  0  0  0  0  0  0  0  0  0
   22.3762   25.5977   37.3189 C   0  0  0  0  0  0  0  0  0  0  0  0
   23.0945   25.2989   38.4322 F   0  0  0  0  0  0  0  0  0  0  0  0
   24.9731   26.1139   37.0508 H   0  0  0  0  0  0  0  0  0  0  0  0
   30.7580   28.6629   36.2441 H   0  0  0  0  0  0  0  0  0  0  0  0
   32.0983   29.2479   34.2470 H   0  0  0  0  0  0  0  0  0  0  0  0
   31.0669   28.9543   31.9901 H   0  0  0  0  0  0  0  0  0  0  0  0
   28.9258   27.8587   31.7656 H   0  0  0  0  0  0  0  0  0  0  0  0
   25.7672   27.1502   32.2659 H   0  0  0  0  0  0  0  0  0  0  0  0
   27.2969   26.3788   31.7553 H   0  0  0  0  0  0  0  0  0  0  0  0
   20.4312   26.4529   34.0969 H   0  0  0  0  0  0  0  0  0  0  0  0
   18.4903   24.7029   35.7478 H   0  0  0  0  0  0  0  0  0  0  0  0
   18.3192   26.4430   35.3985 H   0  0  0  0  0  0  0  0  0  0  0  0
   17.6663   27.9626   37.1341 H   0  0  0  0  0  0  0  0  0  0  0  0
   17.6377   27.4426   38.8447 H   0  0  0  0  0  0  0  0  0  0  0  0
   19.2229   27.6757   38.0073 H   0  0  0  0  0  0  0  0  0  0  0  0
   18.2727   25.2141   39.4653 H   0  0  0  0  0  0  0  0  0  0  0  0
   18.4449   23.9556   38.2108 H   0  0  0  0  0  0  0  0  0  0  0  0
  1  2  1  0
  2  3  2  0
  2  4  1  0
  4  5  2  0
  5  6  1  0
  6  7  2  0
  7  8  1  0
  8  9  2  0
  9 10  1  0
 10 11  2  0
 11 12  1  0
 12 13  2  0
 13 14  1  0
  1 15  1  0
 15 16  2  0
 16 17  1  0
 17 18  2  0
 18 19  1  0
 19 20  1  0
 20 21  1  0
 20 22  1  0
 22 23  1  0
 23 24  2  0
 23 25  1  0
 25 26  2  0
 26 27  1  0
 13  4  1  0
 26 15  1  0
 12  7  1  0
 25 18  1  0
  1 28  1  0
  8 29  1  0
  9 30  1  0
 10 31  1  0
 11 32  1  0
 14 33  1  0
 14 34  1  0
 17 35  1  0
 19 36  1  0
 19 37  1  0
 21 38  1  0
 21 39  1  0
 21 40  1  0
 22 41  1  0
 22 42  1  0
M  END
$$$$
confid_6
     RDKit          3D

 42 45  0  0  0  0  0  0  0  0999 V2000
   24.4800   26.1000   36.1300 N   0  0  0  0  0  0  0  0  0  0  0  0
   25.2500   26.2500   34.9900 C   0  0  0  0  0  0  0  0  0  0  0  0
   24.7400   25.7600   33.9900 O   0  0  0  0  0  0  0  0  0  0  0  0
   26.5900   26.8900   34.9600 C   0  0  0  0  0  0  0  0  0  0  0  0
   27.0600   27.2400   36.1600 N   0  0  0  0  0  0  0  0  0  0  0  0
   28.3000   27.7100   36.2400 N   0  0  0  0  0  0  0  0  0  0  0  0
   29.0500   27.9600   35.1500 C   0  0  0  0  0  0  0  0  0  0  0  0
   30.3400   28.4900   35.2600 C   0  0  0  0  0  0  0  0  0  0  0  0
   31.1100   28.8200   34.1400 C   0  0  0  0  0  0  0  0  0  0  0  0
   30.5200   28.6700   32.8800 C   0  0  0  0  0  0  0  0  0  0  0  0
   29.2900   28.0200   32.7700 C   0  0  0  0  0  0  0  0  0  0  0  0
   28.5200   27.7100   33.8900 C   0  0  0  0  0  0  0  0  0  0  0  0
   27.2700   27.0800   33.7600 C   0  0  0  0  0  0  0  0  0  0  0  0
   26.7500   26.8800   32.4900 N   0  0  0  0  0  0  0  0  0  0  0  0
   23.0421   25.9857   36.1444 C   0  0  0  0  0  0  0  0  0  0  0  0
   22.3148   26.2844   35.0320 N   0  0  0  0  0  0  0  0  0  0  0  0
   20.9593   26.2133   35.0105 C   0  0  0  0  0  0  0  0  0  0  0  0
   20.2556   25.8397   36.1609 C   0  0  0  0  0  0  0  0  0  0  0  0
   18.7520   25.7145   36.1311 C   0  0  0  0  0  0  0  0  0  0  0  0
   18.1829   25.9575   37.4728 N   0  0  0  0  0  0  0  0  0  0  0  0
   16.7159   25.8640   37.4213 C   0  0  0  0  0  0  0  0  0  0  0  0
   18.7154   24.9864   38.4491 C   0  0  0  0  0  0  0  0  0  0  0  0
   20.2114   25.0923   38.5257 C   0  0  0  0  0  0  0  0  0  0  0  0
   20.8008   24.7774   39.5944 O   0  0  0  0  0  0  0  0  0  0  0  0
   20.9715   25.5097   37.3253 C   0  0  0  0  0  0  0  0  0  0  0  0
   22.3767   25.5956   37.3188 C   0  0  0  0  0  0  0  0  0  0  0  0
   23.0948   25.2942   38.4315 F   0  0  0  0  0  0  0  0  0  0  0  0
   24.9731   26.1141   37.0508 H   0  0  0  0  0  0  0  0  0  0  0  0
   30.7580   28.6629   36.2441 H   0  0  0  0  0  0  0  0  0  0  0  0
   32.0983   29.2479   34.2470 H   0  0  0  0  0  0  0  0  0  0  0  0
   31.0669   28.9543   31.9901 H   0  0  0  0  0  0  0  0  0  0  0  0
   28.9258   27.8587   31.7656 H   0  0  0  0  0  0  0  0  0  0  0  0
   25.7672   27.1502   32.2659 H   0  0  0  0  0  0  0  0  0  0  0  0
   27.2969   26.3788   31.7553 H   0  0  0  0  0  0  0  0  0  0  0  0
   20.4310   26.4505   34.0960 H   0  0  0  0  0  0  0  0  0  0  0  0
   18.3412   26.4620   35.4160 H   0  0  0  0  0  0  0  0  0  0  0  0
   18.4838   24.6977   35.7646 H   0  0  0  0  0  0  0  0  0  0  0  0
   16.3091   26.6213   36.7170 H   0  0  0  0  0  0  0  0  0  0  0  0
   16.2835   26.0811   38.4217 H   0  0  0  0  0  0  0  0  0  0  0  0
   16.3862   24.8520   37.0956 H   0  0  0  0  0  0  0  0  0  0  0  0
   18.4426   23.9450   38.1644 H   0  0  0  0  0  0  0  0  0  0  0  0
   18.2927   25.1984   39.4563 H   0  0  0  0  0  0  0  0  0  0  0  0
  1  2  1  0
  2  3  2  0
  2  4  1  0
  4  5  2  0
  5  6  1  0
  6  7  2  0
  7  8  1  0
  8  9  2  0
  9 10  1  0
 10 11  2  0
 11 12  1  0
 12 13  2  0
 13 14  1  0
  1 15  1  0
 15 16  2  0
 16 17  1  0
 17 18  2  0
 18 19  1  0
 19 20  1  0
 20 21  1  0
 20 22  1  0
 22 23  1  0
 23 24  2  0
 23 25  1  0
 25 26  2  0
 26 27  1  0
 13  4  1  0
 26 15  1  0
 12  7  1  0
 25 18  1  0
  1 28  1  0
  8 29  1  0
  9 30  1  0
 10 31  1  0
 11 32  1  0
 14 33  1  0
 14 34  1  0
 17 35  1  0
 19 36  1  0
 19 37  1  0
 21 38  1  0
 21 39  1  0
 21 40  1  0
 22 41  1  0
 22 42  1  0
M  END
$$$$
