confid_0
     RDKit          3D

 42 45  0  0  0  0  0  0  0  0999 V2000
   24.4800   26.1000   36.1300 N   0  0  0  0  0  0  0  0  0  0  0  0
   25.2500   26.2500   34.9900 C   0  0  0  0  0  0  0  0  0  0  0  0
   24.7400   25.7600   33.9900 O   0  0  0  0  0  0  0  0  0  0  0  0
   26.5900   26.8900   34.9600 C   0  0  0  0  0  0  0  0  0  0  0  0
   27.0600   27.2400   36.1600 N   0  0  0  0  0  0  0  0  0  0  0  0
   28.3000   27.7100   36.2400 N   0  0  0  0  0  0  0  0  0  0  0  0
   29.0500   27.9600   35.1500 C   0  0  0  0  0  0  0  0  0  0  0  0
   30.3400   28.4900   35.2600 C   0  0  0  0  0  0  0  0  0  0  0  0
   31.1100   28.8200   34.1400 C   0  0  0  0  0  0  0  0  0  0  0  0
   30.5200   28.6700   32.8800 C   0  0  0  0  0  0  0  0  0  0  0  0
   29.2900   28.0200   32.7700 C   0  0  0  0  0  0  0  0  0  0  0  0
   28.5200   27.7100   33.8900 C   0  0  0  0  0  0  0  0  0  0  0  0
   27.2700   27.0800   33.7600 C   0  0  0  0  0  0  0  0  0  0  0  0
   26.7500   26.8800   32.4900 N   0  0  0  0  0  0  0  0  0  0  0  0
   23.5001   25.0589   36.3279 C   0  0  0  0  0  0  0  0  0  0  0  0
   23.5737   23.9152   35.5937 N   0  0  0  0  0  0  0  0  0  0  0  0
   22.6958   22.8938   35.7461 C   0  0  0  0  0  0  0  0  0  0  0  0
   21.6791   22.9746   36.7026 C   0  0  0  0  0  0  0  0  0  0  0  0
   20.6625   21.8668   36.8131 C   0  0  0  0  0  0  0  0  0  0  0  0
   20.1647   21.7376   38.1871 N   0  0  0  0  0  0  0  0  0  0  0  0
   19.7198   20.4356   38.6892 C   0  0  0  0  0  0  0  0  0  0  0  0
   19.9964   22.9129   38.9988 C   0  0  0  0  0  0  0  0  0  0  0  0
   19.4479   22.8315   40.1316 O   0  0  0  0  0  0  0  0  0  0  0  0
   20.4376   24.2550   38.4924 C   0  0  0  0  0  0  0  0  0  0  0  0
   21.5716   24.1341   37.4970 C   0  0  0  0  0  0  0  0  0  0  0  0
   22.4816   25.1966   37.2944 C   0  0  0  0  0  0  0  0  0  0  0  0
   22.3156   26.7093   38.1940 Cl  0  0  0  0  0  0  0  0  0  0  0  0
   24.6660   26.7573   36.9193 H   0  0  0  0  0  0  0  0  0  0  0  0
   30.7582   28.6623   36.2441 H   0  0  0  0  0  0  0  0  0  0  0  0
   32.0994   29.2455   34.2469 H   0  0  0  0  0  0  0  0  0  0  0  0
   31.0716   28.9442   31.9898 H   0  0  0  0  0  0  0  0  0  0  0  0
   28.9437   27.8129   31.7669 H   0  0  0  0  0  0  0  0  0  0  0  0
   26.7156   27.6566   31.7926 H   0  0  0  0  0  0  0  0  0  0  0  0
   26.3617   25.9528   32.2110 H   0  0  0  0  0  0  0  0  0  0  0  0
   22.7909   22.0183   35.1167 H   0  0  0  0  0  0  0  0  0  0  0  0
   21.1175   20.9075   36.4816 H   0  0  0  0  0  0  0  0  0  0  0  0
   19.8099   22.0972   36.1395 H   0  0  0  0  0  0  0  0  0  0  0  0
   18.6438   20.4842   38.9599 H   0  0  0  0  0  0  0  0  0  0  0  0
   19.8482   19.6405   37.9244 H   0  0  0  0  0  0  0  0  0  0  0  0
   20.3119   20.1601   39.5872 H   0  0  0  0  0  0  0  0  0  0  0  0
   19.5771   24.7573   38.0023 H   0  0  0  0  0  0  0  0  0  0  0  0
   20.7514   24.8622   39.3675 H   0  0  0  0  0  0  0  0  0  0  0  0
  1  2  1  0
  2  3  2  0
  2  4  1  0
  4  5  2  0
  5  6  1  0
  6  7  2  0
  7  8  1  0
  8  9  2  0
  9 10  1  0
 10 11  2  0
 11 12  1  0
 12 13  2  0
 13 14  1  0
  1 15  1  0
 15 16  2  0
 16 17  1  0
 17 18  2  0
 18 19  1  0
 19 20  1  0
 20 21  1  0
 20 22  1  0
 22 23  2  0
 22 24  1  0
 24 25  1  0
 25 26  2  0
 26 27  1  0
 13  4  1  0
 26 15  1  0
 12  7  1  0
 25 18  1  0
  1 28  1  0
  8 29  1  0
  9 30  1  0
 10 31  1  0
 11 32  1  0
 14 33  1  0
 14 34  1  0
 17 35  1  0
 19 36  1  0
 19 37  1  0
 21 38  1  0
 21 39  1  0
 21 40  1  0
 24 41  1  0
 24 42  1  0
M  END
$$$$
confid_1
     RDKit          3D

 42 45  0  0  0  0  0  0  0  0999 V2000
   24.4800   26.1000   36.1300 N   0  0  0  0  0  0  0  0  0  0  0  0
   25.2500   26.2500   34.9900 C   0  0  0  0  0  0  0  0  0  0  0  0
   24.7400   25.7600   33.9900 O   0  0  0  0  0  0  0  0  0  0  0  0
   26.5900   26.8900   34.9600 C   0  0  0  0  0  0  0  0  0  0  0  0
   27.0600   27.2400   36.1600 N   0  0  0  0  0  0  0  0  0  0  0  0
   28.3000   27.7100   36.2400 N   0  0  0  0  0  0  0  0  0  0  0  0
   29.0500   27.9600   35.1500 C   0  0  0  0  0  0  0  0  0  0  0  0
   30.3400   28.4900   35.2600 C   0  0  0  0  0  0  0  0  0  0  0  0
   31.1100   28.8200   34.1400 C   0  0  0  0  0  0  0  0  0  0  0  0
   30.5200   28.6700   32.8800 C   0  0  0  0  0  0  0  0  0  0  0  0
   29.2900   28.0200   32.7700 C   0  0  0  0  0  0  0  0  0  0  0  0
   28.5200   27.7100   33.8900 C   0  0  0  0  0  0  0  0  0  0  0  0
   27.2700   27.0800   33.7600 C   0  0  0  0  0  0  0  0  0  0  0  0
   26.7500   26.8800   32.4900 N   0  0  0  0  0  0  0  0  0  0  0  0
   23.0422   25.9709   36.1306 C   0  0  0  0  0  0  0  0  0  0  0  0
   22.3273   26.4128   35.0601 N   0  0  0  0  0  0  0  0  0  0  0  0
   20.9740   26.3547   35.0129 C   0  0  0  0  0  0  0  0  0  0  0  0
   20.2537   25.8151   36.0827 C   0  0  0  0  0  0  0  0  0  0  0  0
   18.7463   25.8279   36.0549 C   0  0  0  0  0  0  0  0  0  0  0  0
   18.1918   24.6908   36.7976 N   0  0  0  0  0  0  0  0  0  0  0  0
   16.9008   24.1177   36.4098 C   0  0  0  0  0  0  0  0  0  0  0  0
   18.8564   24.2202   37.9830 C   0  0  0  0  0  0  0  0  0  0  0  0
   18.3227   23.3323   38.7024 O   0  0  0  0  0  0  0  0  0  0  0  0
   20.1745   24.8059   38.3978 C   0  0  0  0  0  0  0  0  0  0  0  0
   20.9503   25.3394   37.2121 C   0  0  0  0  0  0  0  0  0  0  0  0
   22.3604   25.4390   37.2462 C   0  0  0  0  0  0  0  0  0  0  0  0
   23.2673   24.8966   38.6636 Cl  0  0  0  0  0  0  0  0  0  0  0  0
   24.9713   26.1437   37.0495 H   0  0  0  0  0  0  0  0  0  0  0  0
   30.7582   28.6623   36.2441 H   0  0  0  0  0  0  0  0  0  0  0  0
   32.0994   29.2455   34.2469 H   0  0  0  0  0  0  0  0  0  0  0  0
   31.0716   28.9442   31.9898 H   0  0  0  0  0  0  0  0  0  0  0  0
   28.9437   27.8129   31.7669 H   0  0  0  0  0  0  0  0  0  0  0  0
   26.3616   25.9529   32.2110 H   0  0  0  0  0  0  0  0  0  0  0  0
   26.7154   27.6567   31.7927 H   0  0  0  0  0  0  0  0  0  0  0  0
   20.4598   26.7392   34.1415 H   0  0  0  0  0  0  0  0  0  0  0  0
   18.3915   25.8034   35.0010 H   0  0  0  0  0  0  0  0  0  0  0  0
   18.3896   26.7718   36.5190 H   0  0  0  0  0  0  0  0  0  0  0  0
   16.1760   24.2236   37.2446 H   0  0  0  0  0  0  0  0  0  0  0  0
   16.4799   24.6314   35.5195 H   0  0  0  0  0  0  0  0  0  0  0  0
   17.0279   23.0414   36.1687 H   0  0  0  0  0  0  0  0  0  0  0  0
   20.7508   24.0106   38.9155 H   0  0  0  0  0  0  0  0  0  0  0  0
   19.9923   25.6348   39.1138 H   0  0  0  0  0  0  0  0  0  0  0  0
  1  2  1  0
  2  3  2  0
  2  4  1  0
  4  5  2  0
  5  6  1  0
  6  7  2  0
  7  8  1  0
  8  9  2  0
  9 10  1  0
 10 11  2  0
 11 12  1  0
 12 13  2  0
 13 14  1  0
  1 15  1  0
 15 16  2  0
 16 17  1  0
 17 18  2  0
 18 19  1  0
 19 20  1  0
 20 21  1  0
 20 22  1  0
 22 23  2  0
 22 24  1  0
 24 25  1  0
 25 26  2  0
 26 27  1  0
 13  4  1  0
 26 15  1  0
 12  7  1  0
 25 18  1  0
  1 28  1  0
  8 29  1  0
  9 30  1  0
 10 31  1  0
 11 32  1  0
 14 33  1  0
 14 34  1  0
 17 35  1  0
 19 36  1  0
 19 37  1  0
 21 38  1  0
 21 39  1  0
 21 40  1  0
 24 41  1  0
 24 42  1  0
M  END
$$$$
confid_2
     RDKit          3D

 42 45  0  0  0  0  0  0  0  0999 V2000
   24.4800   26.1000   36.1300 N   0  0  0  0  0  0  0  0  0  0  0  0
   25.2500   26.2500   34.9900 C   0  0  0  0  0  0  0  0  0  0  0  0
   24.7400   25.7600   33.9900 O   0  0  0  0  0  0  0  0  0  0  0  0
   26.5900   26.8900   34.9600 C   0  0  0  0  0  0  0  0  0  0  0  0
   27.0600   27.2400   36.1600 N   0  0  0  0  0  0  0  0  0  0  0  0
   28.3000   27.7100   36.2400 N   0  0  0  0  0  0  0  0  0  0  0  0
   29.0500   27.9600   35.1500 C   0  0  0  0  0  0  0  0  0  0  0  0
   30.3400   28.4900   35.2600 C   0  0  0  0  0  0  0  0  0  0  0  0
   31.1100   28.8200   34.1400 C   0  0  0  0  0  0  0  0  0  0  0  0
   30.5200   28.6700   32.8800 C   0  0  0  0  0  0  0  0  0  0  0  0
   29.2900   28.0200   32.7700 C   0  0  0  0  0  0  0  0  0  0  0  0
   28.5200   27.7100   33.8900 C   0  0  0  0  0  0  0  0  0  0  0  0
   27.2700   27.0800   33.7600 C   0  0  0  0  0  0  0  0  0  0  0  0
   26.7500   26.8800   32.4900 N   0  0  0  0  0  0  0  0  0  0  0  0
   23.0420   25.9772   36.1319 C   0  0  0  0  0  0  0  0  0  0  0  0
   22.3270   26.4139   35.0592 N   0  0  0  0  0  0  0  0  0  0  0  0
   20.9744   26.3433   35.0076 C   0  0  0  0  0  0  0  0  0  0  0  0
   20.2532   25.8314   36.0905 C   0  0  0  0  0  0  0  0  0  0  0  0
   18.7555   25.6875   35.9948 C   0  0  0  0  0  0  0  0  0  0  0  0
   18.1234   25.8296   37.3110 N   0  0  0  0  0  0  0  0  0  0  0  0
   16.7647   26.3656   37.4211 C   0  0  0  0  0  0  0  0  0  0  0  0
   18.7914   25.3273   38.4814 C   0  0  0  0  0  0  0  0  0  0  0  0
   18.2043   25.3235   39.5976 O   0  0  0  0  0  0  0  0  0  0  0  0
   20.1805   24.7679   38.3813 C   0  0  0  0  0  0  0  0  0  0  0  0
   20.9496   25.3794   37.2297 C   0  0  0  0  0  0  0  0  0  0  0  0
   22.3620   25.4356   37.2430 C   0  0  0  0  0  0  0  0  0  0  0  0
   23.2771   24.7795   38.6057 Cl  0  0  0  0  0  0  0  0  0  0  0  0
   24.9699   26.1429   37.0505 H   0  0  0  0  0  0  0  0  0  0  0  0
   30.7582   28.6623   36.2441 H   0  0  0  0  0  0  0  0  0  0  0  0
   32.0994   29.2455   34.2469 H   0  0  0  0  0  0  0  0  0  0  0  0
   31.0715   28.9442   31.9898 H   0  0  0  0  0  0  0  0  0  0  0  0
   28.9437   27.8129   31.7669 H   0  0  0  0  0  0  0  0  0  0  0  0
   26.7155   27.6567   31.7927 H   0  0  0  0  0  0  0  0  0  0  0  0
   26.3616   25.9529   32.2110 H   0  0  0  0  0  0  0  0  0  0  0  0
   20.4620   26.6853   34.1175 H   0  0  0  0  0  0  0  0  0  0  0  0
   18.3505   26.4501   35.2936 H   0  0  0  0  0  0  0  0  0  0  0  0
   18.5197   24.6817   35.5867 H   0  0  0  0  0  0  0  0  0  0  0  0
   16.0936   25.6016   37.8672 H   0  0  0  0  0  0  0  0  0  0  0  0
   16.7715   27.2695   38.0658 H   0  0  0  0  0  0  0  0  0  0  0  0
   16.3571   26.6450   36.4264 H   0  0  0  0  0  0  0  0  0  0  0  0
   20.1179   23.6694   38.2325 H   0  0  0  0  0  0  0  0  0  0  0  0
   20.6974   24.9669   39.3436 H   0  0  0  0  0  0  0  0  0  0  0  0
  1  2  1  0
  2  3  2  0
  2  4  1  0
  4  5  2  0
  5  6  1  0
  6  7  2  0
  7  8  1  0
  8  9  2  0
  9 10  1  0
 10 11  2  0
 11 12  1  0
 12 13  2  0
 13 14  1  0
  1 15  1  0
 15 16  2  0
 16 17  1  0
 17 18  2  0
 18 19  1  0
 19 20  1  0
 20 21  1  0
 20 22  1  0
 22 23  2  0
 22 24  1  0
 24 25  1  0
 25 26  2  0
 26 27  1  0
 13  4  1  0
 26 15  1  0
 12  7  1  0
 25 18  1  0
  1 28  1  0
  8 29  1  0
  9 30  1  0
 10 31  1  0
 11 32  1  0
 14 33  1  0
 14 34  1  0
 17 35  1  0
 19 36  1  0
 19 37  1  0
 21 38  1  0
 21 39  1  0
 21 40  1  0
 24 41  1  0
 24 42  1  0
M  END
$$$$
confid_3
     RDKit          3D

 42 45  0  0  0  0  0  0  0  0999 V2000
   24.4800   26.1000   36.1300 N   0  0  0  0  0  0  0  0  0  0  0  0
   25.2500   26.2500   34.9900 C   0  0  0  0  0  0  0  0  0  0  0  0
   24.7400   25.7600   33.9900 O   0  0  0  0  0  0  0  0  0  0  0  0
   26.5900   26.8900   34.9600 C   0  0  0  0  0  0  0  0  0  0  0  0
   27.0600   27.2400   36.1600 N   0  0  0  0  0  0  0  0  0  0  0  0
   28.3000   27.7100   36.2400 N   0  0  0  0  0  0  0  0  0  0  0  0
   29.0500   27.9600   35.1500 C   0  0  0  0  0  0  0  0  0  0  0  0
   30.3400   28.4900   35.2600 C   0  0  0  0  0  0  0  0  0  0  0  0
   31.1100   28.8200   34.1400 C   0  0  0  0  0  0  0  0  0  0  0  0
   30.5200   28.6700   32.8800 C   0  0  0  0  0  0  0  0  0  0  0  0
   29.2900   28.0200   32.7700 C   0  0  0  0  0  0  0  0  0  0  0  0
   28.5200   27.7100   33.8900 C   0  0  0  0  0  0  0  0  0  0  0  0
   27.2700   27.0800   33.7600 C   0  0  0  0  0  0  0  0  0  0  0  0
   26.7500   26.8800   32.4900 N   0  0  0  0  0  0  0  0  0  0  0  0
   23.4999   25.0584   36.3265 C   0  0  0  0  0  0  0  0  0  0  0  0
   23.5819   23.9118   35.5978 N   0  0  0  0  0  0  0  0  0  0  0  0
   22.7168   22.8812   35.7603 C   0  0  0  0  0  0  0  0  0  0  0  0
   21.6814   22.9705   36.6955 C   0  0  0  0  0  0  0  0  0  0  0  0
   20.7735   21.7889   36.9249 C   0  0  0  0  0  0  0  0  0  0  0  0
   19.4317   22.2212   37.3310 N   0  0  0  0  0  0  0  0  0  0  0  0
   18.2626   21.4049   36.9960 C   0  0  0  0  0  0  0  0  0  0  0  0
   19.2782   23.3821   38.1659 C   0  0  0  0  0  0  0  0  0  0  0  0
   18.1458   23.6879   38.6296 O   0  0  0  0  0  0  0  0  0  0  0  0
   20.4691   24.2219   38.5253 C   0  0  0  0  0  0  0  0  0  0  0  0
   21.5527   24.1406   37.4710 C   0  0  0  0  0  0  0  0  0  0  0  0
   22.4868   25.1883   37.3005 C   0  0  0  0  0  0  0  0  0  0  0  0
   22.3878   26.6523   38.2866 Cl  0  0  0  0  0  0  0  0  0  0  0  0
   24.6650   26.7601   36.9170 H   0  0  0  0  0  0  0  0  0  0  0  0
   30.7582   28.6623   36.2441 H   0  0  0  0  0  0  0  0  0  0  0  0
   32.0994   29.2455   34.2469 H   0  0  0  0  0  0  0  0  0  0  0  0
   31.0716   28.9442   31.9898 H   0  0  0  0  0  0  0  0  0  0  0  0
   28.9437   27.8129   31.7669 H   0  0  0  0  0  0  0  0  0  0  0  0
   26.7156   27.6566   31.7926 H   0  0  0  0  0  0  0  0  0  0  0  0
   26.3617   25.9528   32.2110 H   0  0  0  0  0  0  0  0  0  0  0  0
   22.8441   21.9869   35.1639 H   0  0  0  0  0  0  0  0  0  0  0  0
   20.7120   21.1788   35.9970 H   0  0  0  0  0  0  0  0  0  0  0  0
   21.2082   21.1563   37.7277 H   0  0  0  0  0  0  0  0  0  0  0  0
   17.7627   21.0634   37.9270 H   0  0  0  0  0  0  0  0  0  0  0  0
   18.5497   20.5070   36.4086 H   0  0  0  0  0  0  0  0  0  0  0  0
   17.5480   22.0058   36.3951 H   0  0  0  0  0  0  0  0  0  0  0  0
   20.1210   25.2690   38.6472 H   0  0  0  0  0  0  0  0  0  0  0  0
   20.8800   23.8700   39.4949 H   0  0  0  0  0  0  0  0  0  0  0  0
  1  2  1  0
  2  3  2  0
  2  4  1  0
  4  5  2  0
  5  6  1  0
  6  7  2  0
  7  8  1  0
  8  9  2  0
  9 10  1  0
 10 11  2  0
 11 12  1  0
 12 13  2  0
 13 14  1  0
  1 15  1  0
 15 16  2  0
 16 17  1  0
 17 18  2  0
 18 19  1  0
 19 20  1  0
 20 21  1  0
 20 22  1  0
 22 23  2  0
 22 24  1  0
 24 25  1  0
 25 26  2  0
 26 27  1  0
 13  4  1  0
 26 15  1  0
 12  7  1  0
 25 18  1  0
  1 28  1  0
  8 29  1  0
  9 30  1  0
 10 31  1  0
 11 32  1  0
 14 33  1  0
 14 34  1  0
 17 35  1  0
 19 36  1  0
 19 37  1  0
 21 38  1  0
 21 39  1  0
 21 40  1  0
 24 41  1  0
 24 42  1  0
M  END
$$$$
