confid_0
     RDKit          3D

 42 45  0  0  0  0  0  0  0  0999 V2000
   24.6900   26.1200   35.5300 N   0  0  0  0  0  0  0  0  0  0  0  0
   25.6600   25.6700   34.6600 C   0  0  0  0  0  0  0  0  0  0  0  0
   25.2400   25.0100   33.7200 O   0  0  0  0  0  0  0  0  0  0  0  0
   27.0300   26.2200   34.8800 C   0  0  0  0  0  0  0  0  0  0  0  0
   27.3500   26.7300   36.0700 N   0  0  0  0  0  0  0  0  0  0  0  0
   28.5700   27.1800   36.3300 N   0  0  0  0  0  0  0  0  0  0  0  0
   29.5300   27.1100   35.3900 C   0  0  0  0  0  0  0  0  0  0  0  0
   30.8300   27.5700   35.6500 C   0  0  0  0  0  0  0  0  0  0  0  0
   31.8500   27.5400   34.6900 C   0  0  0  0  0  0  0  0  0  0  0  0
   31.5100   27.1200   33.4000 C   0  0  0  0  0  0  0  0  0  0  0  0
   30.2200   26.6300   33.1100 C   0  0  0  0  0  0  0  0  0  0  0  0
   29.2400   26.6600   34.1000 C   0  0  0  0  0  0  0  0  0  0  0  0
   27.9300   26.2600   33.8100 C   0  0  0  0  0  0  0  0  0  0  0  0
   27.5200   25.7100   32.6100 N   0  0  0  0  0  0  0  0  0  0  0  0
   23.3294   26.4082   35.1508 C   0  0  0  0  0  0  0  0  0  0  0  0
   22.9808   26.5016   33.8266 N   0  0  0  0  0  0  0  0  0  0  0  0
   21.7111   26.7936   33.4208 C   0  0  0  0  0  0  0  0  0  0  0  0
   20.7333   27.0100   34.3866 C   0  0  0  0  0  0  0  0  0  0  0  0
   19.2834   27.3515   34.1942 C   0  0  0  0  0  0  0  0  0  0  0  0
   18.7796   27.4465   35.5681 N   0  0  0  0  0  0  0  0  0  0  0  0
   19.8581   27.2063   36.4686 C   0  0  0  0  0  0  0  0  0  0  0  0
   19.7627   27.2490   37.7240 O   0  0  0  0  0  0  0  0  0  0  0  0
   21.0588   26.9302   35.7195 C   0  0  0  0  0  0  0  0  0  0  0  0
   22.3517   26.6343   36.1430 C   0  0  0  0  0  0  0  0  0  0  0  0
   22.6497   26.5619   37.4649 F   0  0  0  0  0  0  0  0  0  0  0  0
   17.4187   27.8243   35.9401 C   0  0  0  0  0  0  0  0  0  0  0  0
   16.6811   26.6336   36.5403 C   0  0  0  0  0  0  0  0  0  0  0  0
   24.9499   26.2677   36.5315 H   0  0  0  0  0  0  0  0  0  0  0  0
   31.0673   27.9414   36.6394 H   0  0  0  0  0  0  0  0  0  0  0  0
   32.8486   27.8873   34.9214 H   0  0  0  0  0  0  0  0  0  0  0  0
   32.2655   27.1208   32.6249 H   0  0  0  0  0  0  0  0  0  0  0  0
   30.0114   26.2785   32.1078 H   0  0  0  0  0  0  0  0  0  0  0  0
   27.3407   24.6833   32.5417 H   0  0  0  0  0  0  0  0  0  0  0  0
   27.6973   26.2231   31.7183 H   0  0  0  0  0  0  0  0  0  0  0  0
   21.4749   26.8575   32.3671 H   0  0  0  0  0  0  0  0  0  0  0  0
   18.7574   26.5425   33.6444 H   0  0  0  0  0  0  0  0  0  0  0  0
   19.1788   28.3277   33.6748 H   0  0  0  0  0  0  0  0  0  0  0  0
   17.4497   28.6591   36.6727 H   0  0  0  0  0  0  0  0  0  0  0  0
   16.8665   28.1726   35.0404 H   0  0  0  0  0  0  0  0  0  0  0  0
   16.6574   25.7948   35.8125 H   0  0  0  0  0  0  0  0  0  0  0  0
   15.6383   26.9259   36.7851 H   0  0  0  0  0  0  0  0  0  0  0  0
   17.1837   26.2957   37.4708 H   0  0  0  0  0  0  0  0  0  0  0  0
  1  2  1  0
  2  3  2  0
  2  4  1  0
  4  5  2  0
  5  6  1  0
  6  7  2  0
  7  8  1  0
  8  9  2  0
  9 10  1  0
 10 11  2  0
 11 12  1  0
 12 13  2  0
 13 14  1  0
  1 15  1  0
 15 16  2  0
 16 17  1  0
 17 18  2  0
 18 19  1  0
 19 20  1  0
 20 21  1  0
 21 22  2  0
 21 23  1  0
 23 24  2  0
 24 25  1  0
 20 26  1  0
 26 27  1  0
 13  4  1  0
 24 15  1  0
 12  7  1  0
 23 18  1  0
  1 28  1  0
  8 29  1  0
  9 30  1  0
 10 31  1  0
 11 32  1  0
 14 33  1  0
 14 34  1  0
 17 35  1  0
 19 36  1  0
 19 37  1  0
 26 38  1  0
 26 39  1  0
 27 40  1  0
 27 41  1  0
 27 42  1  0
M  END
$$$$
confid_1
     RDKit          3D

 42 45  0  0  0  0  0  0  0  0999 V2000
   24.6900   26.1200   35.5300 N   0  0  0  0  0  0  0  0  0  0  0  0
   25.6600   25.6700   34.6600 C   0  0  0  0  0  0  0  0  0  0  0  0
   25.2400   25.0100   33.7200 O   0  0  0  0  0  0  0  0  0  0  0  0
   27.0300   26.2200   34.8800 C   0  0  0  0  0  0  0  0  0  0  0  0
   27.3500   26.7300   36.0700 N   0  0  0  0  0  0  0  0  0  0  0  0
   28.5700   27.1800   36.3300 N   0  0  0  0  0  0  0  0  0  0  0  0
   29.5300   27.1100   35.3900 C   0  0  0  0  0  0  0  0  0  0  0  0
   30.8300   27.5700   35.6500 C   0  0  0  0  0  0  0  0  0  0  0  0
   31.8500   27.5400   34.6900 C   0  0  0  0  0  0  0  0  0  0  0  0
   31.5100   27.1200   33.4000 C   0  0  0  0  0  0  0  0  0  0  0  0
   30.2200   26.6300   33.1100 C   0  0  0  0  0  0  0  0  0  0  0  0
   29.2400   26.6600   34.1000 C   0  0  0  0  0  0  0  0  0  0  0  0
   27.9300   26.2600   33.8100 C   0  0  0  0  0  0  0  0  0  0  0  0
   27.5200   25.7100   32.6100 N   0  0  0  0  0  0  0  0  0  0  0  0
   23.4993   25.3783   35.8589 C   0  0  0  0  0  0  0  0  0  0  0  0
   23.3724   24.0646   35.4824 N   0  0  0  0  0  0  0  0  0  0  0  0
   22.2721   23.3171   35.7869 C   0  0  0  0  0  0  0  0  0  0  0  0
   21.2411   23.9083   36.5105 C   0  0  0  0  0  0  0  0  0  0  0  0
   19.9477   23.2988   36.9703 C   0  0  0  0  0  0  0  0  0  0  0  0
   19.2881   24.4071   37.6681 N   0  0  0  0  0  0  0  0  0  0  0  0
   20.1455   25.5452   37.6328 C   0  0  0  0  0  0  0  0  0  0  0  0
   19.8847   26.6524   38.1740 O   0  0  0  0  0  0  0  0  0  0  0  0
   21.3474   25.2205   36.9053 C   0  0  0  0  0  0  0  0  0  0  0  0
   22.4666   25.9905   36.6006 C   0  0  0  0  0  0  0  0  0  0  0  0
   22.5496   27.2841   37.0017 F   0  0  0  0  0  0  0  0  0  0  0  0
   18.0084   24.3178   38.3665 C   0  0  0  0  0  0  0  0  0  0  0  0
   16.9440   25.1236   37.6318 C   0  0  0  0  0  0  0  0  0  0  0  0
   24.8259   27.0473   35.9940 H   0  0  0  0  0  0  0  0  0  0  0  0
   31.0673   27.9414   36.6394 H   0  0  0  0  0  0  0  0  0  0  0  0
   32.8486   27.8872   34.9214 H   0  0  0  0  0  0  0  0  0  0  0  0
   32.2655   27.1208   32.6249 H   0  0  0  0  0  0  0  0  0  0  0  0
   30.0114   26.2784   32.1078 H   0  0  0  0  0  0  0  0  0  0  0  0
   27.6979   26.2228   31.7183 H   0  0  0  0  0  0  0  0  0  0  0  0
   27.3407   24.6833   32.5418 H   0  0  0  0  0  0  0  0  0  0  0  0
   22.2084   22.2843   35.4717 H   0  0  0  0  0  0  0  0  0  0  0  0
   20.1404   22.4592   37.6715 H   0  0  0  0  0  0  0  0  0  0  0  0
   19.3369   22.9694   36.1032 H   0  0  0  0  0  0  0  0  0  0  0  0
   18.1220   24.6979   39.4043 H   0  0  0  0  0  0  0  0  0  0  0  0
   17.6828   23.2563   38.4196 H   0  0  0  0  0  0  0  0  0  0  0  0
   15.9699   25.0179   38.1541 H   0  0  0  0  0  0  0  0  0  0  0  0
   16.8357   24.7506   36.5912 H   0  0  0  0  0  0  0  0  0  0  0  0
   17.2201   26.1986   37.6076 H   0  0  0  0  0  0  0  0  0  0  0  0
  1  2  1  0
  2  3  2  0
  2  4  1  0
  4  5  2  0
  5  6  1  0
  6  7  2  0
  7  8  1  0
  8  9  2  0
  9 10  1  0
 10 11  2  0
 11 12  1  0
 12 13  2  0
 13 14  1  0
  1 15  1  0
 15 16  2  0
 16 17  1  0
 17 18  2  0
 18 19  1  0
 19 20  1  0
 20 21  1  0
 21 22  2  0
 21 23  1  0
 23 24  2  0
 24 25  1  0
 20 26  1  0
 26 27  1  0
 13  4  1  0
 24 15  1  0
 12  7  1  0
 23 18  1  0
  1 28  1  0
  8 29  1  0
  9 30  1  0
 10 31  1  0
 11 32  1  0
 14 33  1  0
 14 34  1  0
 17 35  1  0
 19 36  1  0
 19 37  1  0
 26 38  1  0
 26 39  1  0
 27 40  1  0
 27 41  1  0
 27 42  1  0
M  END
$$$$
confid_2
     RDKit          3D

 42 45  0  0  0  0  0  0  0  0999 V2000
   24.6900   26.1200   35.5300 N   0  0  0  0  0  0  0  0  0  0  0  0
   25.6600   25.6700   34.6600 C   0  0  0  0  0  0  0  0  0  0  0  0
   25.2400   25.0100   33.7200 O   0  0  0  0  0  0  0  0  0  0  0  0
   27.0300   26.2200   34.8800 C   0  0  0  0  0  0  0  0  0  0  0  0
   27.3500   26.7300   36.0700 N   0  0  0  0  0  0  0  0  0  0  0  0
   28.5700   27.1800   36.3300 N   0  0  0  0  0  0  0  0  0  0  0  0
   29.5300   27.1100   35.3900 C   0  0  0  0  0  0  0  0  0  0  0  0
   30.8300   27.5700   35.6500 C   0  0  0  0  0  0  0  0  0  0  0  0
   31.8500   27.5400   34.6900 C   0  0  0  0  0  0  0  0  0  0  0  0
   31.5100   27.1200   33.4000 C   0  0  0  0  0  0  0  0  0  0  0  0
   30.2200   26.6300   33.1100 C   0  0  0  0  0  0  0  0  0  0  0  0
   29.2400   26.6600   34.1000 C   0  0  0  0  0  0  0  0  0  0  0  0
   27.9300   26.2600   33.8100 C   0  0  0  0  0  0  0  0  0  0  0  0
   27.5200   25.7100   32.6100 N   0  0  0  0  0  0  0  0  0  0  0  0
   23.4931   25.3840   35.8488 C   0  0  0  0  0  0  0  0  0  0  0  0
   23.3692   24.0669   35.4839 N   0  0  0  0  0  0  0  0  0  0  0  0
   22.2630   23.3247   35.7797 C   0  0  0  0  0  0  0  0  0  0  0  0
   21.2231   23.9247   36.4829 C   0  0  0  0  0  0  0  0  0  0  0  0
   19.9157   23.3268   36.9174 C   0  0  0  0  0  0  0  0  0  0  0  0
   19.2607   24.4347   37.6198 N   0  0  0  0  0  0  0  0  0  0  0  0
   20.1119   25.5768   37.5670 C   0  0  0  0  0  0  0  0  0  0  0  0
   19.8247   26.7040   38.0506 O   0  0  0  0  0  0  0  0  0  0  0  0
   21.3259   25.2408   36.8653 C   0  0  0  0  0  0  0  0  0  0  0  0
   22.4509   26.0058   36.5689 C   0  0  0  0  0  0  0  0  0  0  0  0
   22.5308   27.3034   36.9581 F   0  0  0  0  0  0  0  0  0  0  0  0
   17.9171   24.3904   38.1909 C   0  0  0  0  0  0  0  0  0  0  0  0
   17.9830   24.4476   39.7124 C   0  0  0  0  0  0  0  0  0  0  0  0
   24.8280   27.0448   35.9987 H   0  0  0  0  0  0  0  0  0  0  0  0
   31.0673   27.9414   36.6394 H   0  0  0  0  0  0  0  0  0  0  0  0
   32.8486   27.8873   34.9214 H   0  0  0  0  0  0  0  0  0  0  0  0
   32.2655   27.1208   32.6249 H   0  0  0  0  0  0  0  0  0  0  0  0
   30.0114   26.2784   32.1078 H   0  0  0  0  0  0  0  0  0  0  0  0
   27.6980   26.2227   31.7182 H   0  0  0  0  0  0  0  0  0  0  0  0
   27.3406   24.6833   32.5418 H   0  0  0  0  0  0  0  0  0  0  0  0
   22.2014   22.2893   35.4732 H   0  0  0  0  0  0  0  0  0  0  0  0
   19.3157   23.0190   36.0346 H   0  0  0  0  0  0  0  0  0  0  0  0
   20.0826   22.4743   37.6097 H   0  0  0  0  0  0  0  0  0  0  0  0
   17.4118   23.4478   37.8887 H   0  0  0  0  0  0  0  0  0  0  0  0
   17.3186   25.2431   37.8048 H   0  0  0  0  0  0  0  0  0  0  0  0
   18.4325   25.4067   40.0443 H   0  0  0  0  0  0  0  0  0  0  0  0
   16.9584   24.3708   40.1333 H   0  0  0  0  0  0  0  0  0  0  0  0
   18.5944   23.6050   40.0990 H   0  0  0  0  0  0  0  0  0  0  0  0
  1  2  1  0
  2  3  2  0
  2  4  1  0
  4  5  2  0
  5  6  1  0
  6  7  2  0
  7  8  1  0
  8  9  2  0
  9 10  1  0
 10 11  2  0
 11 12  1  0
 12 13  2  0
 13 14  1  0
  1 15  1  0
 15 16  2  0
 16 17  1  0
 17 18  2  0
 18 19  1  0
 19 20  1  0
 20 21  1  0
 21 22  2  0
 21 23  1  0
 23 24  2  0
 24 25  1  0
 20 26  1  0
 26 27  1  0
 13  4  1  0
 24 15  1  0
 12  7  1  0
 23 18  1  0
  1 28  1  0
  8 29  1  0
  9 30  1  0
 10 31  1  0
 11 32  1  0
 14 33  1  0
 14 34  1  0
 17 35  1  0
 19 36  1  0
 19 37  1  0
 26 38  1  0
 26 39  1  0
 27 40  1  0
 27 41  1  0
 27 42  1  0
M  END
$$$$
confid_3
     RDKit          3D

 42 45  0  0  0  0  0  0  0  0999 V2000
   24.6900   26.1200   35.5300 N   0  0  0  0  0  0  0  0  0  0  0  0
   25.6600   25.6700   34.6600 C   0  0  0  0  0  0  0  0  0  0  0  0
   25.2400   25.0100   33.7200 O   0  0  0  0  0  0  0  0  0  0  0  0
   27.0300   26.2200   34.8800 C   0  0  0  0  0  0  0  0  0  0  0  0
   27.3500   26.7300   36.0700 N   0  0  0  0  0  0  0  0  0  0  0  0
   28.5700   27.1800   36.3300 N   0  0  0  0  0  0  0  0  0  0  0  0
   29.5300   27.1100   35.3900 C   0  0  0  0  0  0  0  0  0  0  0  0
   30.8300   27.5700   35.6500 C   0  0  0  0  0  0  0  0  0  0  0  0
   31.8500   27.5400   34.6900 C   0  0  0  0  0  0  0  0  0  0  0  0
   31.5100   27.1200   33.4000 C   0  0  0  0  0  0  0  0  0  0  0  0
   30.2200   26.6300   33.1100 C   0  0  0  0  0  0  0  0  0  0  0  0
   29.2400   26.6600   34.1000 C   0  0  0  0  0  0  0  0  0  0  0  0
   27.9300   26.2600   33.8100 C   0  0  0  0  0  0  0  0  0  0  0  0
   27.5200   25.7100   32.6100 N   0  0  0  0  0  0  0  0  0  0  0  0
   23.5561   25.3305   35.9343 C   0  0  0  0  0  0  0  0  0  0  0  0
   23.4713   24.0070   35.5816 N   0  0  0  0  0  0  0  0  0  0  0  0
   22.4267   23.2135   35.9571 C   0  0  0  0  0  0  0  0  0  0  0  0
   21.4122   23.7657   36.7330 C   0  0  0  0  0  0  0  0  0  0  0  0
   20.1725   23.1058   37.2648 C   0  0  0  0  0  0  0  0  0  0  0  0
   19.5207   24.1822   38.0188 N   0  0  0  0  0  0  0  0  0  0  0  0
   20.3042   25.3661   37.8959 C   0  0  0  0  0  0  0  0  0  0  0  0
   19.9979   26.4801   38.3985 O   0  0  0  0  0  0  0  0  0  0  0  0
   21.4768   25.0878   37.1038 C   0  0  0  0  0  0  0  0  0  0  0  0
   22.5374   25.9059   36.7235 C   0  0  0  0  0  0  0  0  0  0  0  0
   22.5802   27.2086   37.1019 F   0  0  0  0  0  0  0  0  0  0  0  0
   18.2260   24.0754   38.6864 C   0  0  0  0  0  0  0  0  0  0  0  0
   18.3996   24.1452   40.1994 C   0  0  0  0  0  0  0  0  0  0  0  0
   24.8037   27.0667   35.9591 H   0  0  0  0  0  0  0  0  0  0  0  0
   31.0674   27.9414   36.6394 H   0  0  0  0  0  0  0  0  0  0  0  0
   32.8486   27.8873   34.9214 H   0  0  0  0  0  0  0  0  0  0  0  0
   32.2654   27.1210   32.6248 H   0  0  0  0  0  0  0  0  0  0  0  0
   30.0115   26.2784   32.1078 H   0  0  0  0  0  0  0  0  0  0  0  0
   27.3411   24.6832   32.5417 H   0  0  0  0  0  0  0  0  0  0  0  0
   27.6978   26.2228   31.7183 H   0  0  0  0  0  0  0  0  0  0  0  0
   22.3928   22.1750   35.6554 H   0  0  0  0  0  0  0  0  0  0  0  0
   20.4315   22.2619   37.9390 H   0  0  0  0  0  0  0  0  0  0  0  0
   19.5219   22.7680   36.4296 H   0  0  0  0  0  0  0  0  0  0  0  0
   17.7479   23.1069   38.4247 H   0  0  0  0  0  0  0  0  0  0  0  0
   17.5595   24.8965   38.3434 H   0  0  0  0  0  0  0  0  0  0  0  0
   18.8373   25.1214   40.4982 H   0  0  0  0  0  0  0  0  0  0  0  0
   17.4120   24.0325   40.6936 H   0  0  0  0  0  0  0  0  0  0  0  0
   19.0683   23.3273   40.5432 H   0  0  0  0  0  0  0  0  0  0  0  0
  1  2  1  0
  2  3  2  0
  2  4  1  0
  4  5  2  0
  5  6  1  0
  6  7  2  0
  7  8  1  0
  8  9  2  0
  9 10  1  0
 10 11  2  0
 11 12  1  0
 12 13  2  0
 13 14  1  0
  1 15  1  0
 15 16  2  0
 16 17  1  0
 17 18  2  0
 18 19  1  0
 19 20  1  0
 20 21  1  0
 21 22  2  0
 21 23  1  0
 23 24  2  0
 24 25  1  0
 20 26  1  0
 26 27  1  0
 13  4  1  0
 24 15  1  0
 12  7  1  0
 23 18  1  0
  1 28  1  0
  8 29  1  0
  9 30  1  0
 10 31  1  0
 11 32  1  0
 14 33  1  0
 14 34  1  0
 17 35  1  0
 19 36  1  0
 19 37  1  0
 26 38  1  0
 26 39  1  0
 27 40  1  0
 27 41  1  0
 27 42  1  0
M  END
$$$$
