confid_0
     RDKit          3D

 42 45  0  0  0  0  0  0  0  0999 V2000
   24.2000   26.2400   35.6900 N   0  0  0  0  0  0  0  0  0  0  0  0
   24.8500   26.2800   34.4800 C   0  0  0  0  0  0  0  0  0  0  0  0
   24.3100   25.7400   33.5400 O   0  0  0  0  0  0  0  0  0  0  0  0
   26.1800   26.9700   34.4700 C   0  0  0  0  0  0  0  0  0  0  0  0
   26.6500   27.6000   35.5500 N   0  0  0  0  0  0  0  0  0  0  0  0
   27.7900   28.2700   35.6200 N   0  0  0  0  0  0  0  0  0  0  0  0
   28.5400   28.3000   34.5100 C   0  0  0  0  0  0  0  0  0  0  0  0
   29.7700   28.9400   34.5600 C   0  0  0  0  0  0  0  0  0  0  0  0
   30.7000   28.8900   33.5000 C   0  0  0  0  0  0  0  0  0  0  0  0
   30.3700   28.1400   32.3700 C   0  0  0  0  0  0  0  0  0  0  0  0
   29.1200   27.5200   32.2800 C   0  0  0  0  0  0  0  0  0  0  0  0
   28.2100   27.6100   33.3300 C   0  0  0  0  0  0  0  0  0  0  0  0
   26.9700   26.9700   33.3100 C   0  0  0  0  0  0  0  0  0  0  0  0
   26.5300   26.2400   32.2200 N   0  0  0  0  0  0  0  0  0  0  0  0
   23.2423   25.2209   36.0485 C   0  0  0  0  0  0  0  0  0  0  0  0
   23.2481   24.0321   35.3856 N   0  0  0  0  0  0  0  0  0  0  0  0
   22.4008   23.0204   35.6935 C   0  0  0  0  0  0  0  0  0  0  0  0
   21.4624   23.1730   36.7181 C   0  0  0  0  0  0  0  0  0  0  0  0
   20.5835   22.0114   37.0992 C   0  0  0  0  0  0  0  0  0  0  0  0
   19.2828   22.4864   37.6664 C   0  0  0  0  0  0  0  0  0  0  0  0
   18.2589   21.7578   37.5598 O   0  0  0  0  0  0  0  0  0  0  0  0
   19.2137   23.7436   38.3612 N   0  0  0  0  0  0  0  0  0  0  0  0
   17.9482   24.1678   38.9654 C   0  0  0  0  0  0  0  0  0  0  0  0
   20.4335   24.5340   38.5793 C   0  0  0  0  0  0  0  0  0  0  0  0
   21.4121   24.3890   37.4298 C   0  0  0  0  0  0  0  0  0  0  0  0
   22.3290   25.4173   37.1078 C   0  0  0  0  0  0  0  0  0  0  0  0
   22.3339   26.9362   38.0137 Cl  0  0  0  0  0  0  0  0  0  0  0  0
   24.4141   26.9805   36.3935 H   0  0  0  0  0  0  0  0  0  0  0  0
   30.0498   29.4792   35.4573 H   0  0  0  0  0  0  0  0  0  0  0  0
   31.6569   29.3901   33.5753 H   0  0  0  0  0  0  0  0  0  0  0  0
   31.0715   28.0646   31.5492 H   0  0  0  0  0  0  0  0  0  0  0  0
   28.8856   26.9764   31.3746 H   0  0  0  0  0  0  0  0  0  0  0  0
   25.6752   26.5394   31.7002 H   0  0  0  0  0  0  0  0  0  0  0  0
   27.1523   25.5355   31.7657 H   0  0  0  0  0  0  0  0  0  0  0  0
   22.4666   22.0912   35.1420 H   0  0  0  0  0  0  0  0  0  0  0  0
   21.1065   21.3962   37.8614 H   0  0  0  0  0  0  0  0  0  0  0  0
   20.3815   21.3753   36.2093 H   0  0  0  0  0  0  0  0  0  0  0  0
   18.0675   25.1130   39.5365 H   0  0  0  0  0  0  0  0  0  0  0  0
   17.1907   24.3295   38.1698 H   0  0  0  0  0  0  0  0  0  0  0  0
   17.5844   23.3859   39.6653 H   0  0  0  0  0  0  0  0  0  0  0  0
   20.1526   25.5996   38.7091 H   0  0  0  0  0  0  0  0  0  0  0  0
   20.9265   24.1888   39.5127 H   0  0  0  0  0  0  0  0  0  0  0  0
  1  2  1  0
  2  3  2  0
  2  4  1  0
  4  5  2  0
  5  6  1  0
  6  7  2  0
  7  8  1  0
  8  9  2  0
  9 10  1  0
 10 11  2  0
 11 12  1  0
 12 13  2  0
 13 14  1  0
  1 15  1  0
 15 16  2  0
 16 17  1  0
 17 18  2  0
 18 19  1  0
 19 20  1  0
 20 21  2  0
 20 22  1  0
 22 23  1  0
 22 24  1  0
 24 25  1  0
 25 26  2  0
 26 27  1  0
 13  4  1  0
 26 15  1  0
 12  7  1  0
 25 18  1  0
  1 28  1  0
  8 29  1  0
  9 30  1  0
 10 31  1  0
 11 32  1  0
 14 33  1  0
 14 34  1  0
 17 35  1  0
 19 36  1  0
 19 37  1  0
 23 38  1  0
 23 39  1  0
 23 40  1  0
 24 41  1  0
 24 42  1  0
M  END
$$$$
confid_1
     RDKit          3D

 42 45  0  0  0  0  0  0  0  0999 V2000
   24.2000   26.2400   35.6900 N   0  0  0  0  0  0  0  0  0  0  0  0
   24.8500   26.2800   34.4800 C   0  0  0  0  0  0  0  0  0  0  0  0
   24.3100   25.7400   33.5400 O   0  0  0  0  0  0  0  0  0  0  0  0
   26.1800   26.9700   34.4700 C   0  0  0  0  0  0  0  0  0  0  0  0
   26.6500   27.6000   35.5500 N   0  0  0  0  0  0  0  0  0  0  0  0
   27.7900   28.2700   35.6200 N   0  0  0  0  0  0  0  0  0  0  0  0
   28.5400   28.3000   34.5100 C   0  0  0  0  0  0  0  0  0  0  0  0
   29.7700   28.9400   34.5600 C   0  0  0  0  0  0  0  0  0  0  0  0
   30.7000   28.8900   33.5000 C   0  0  0  0  0  0  0  0  0  0  0  0
   30.3700   28.1400   32.3700 C   0  0  0  0  0  0  0  0  0  0  0  0
   29.1200   27.5200   32.2800 C   0  0  0  0  0  0  0  0  0  0  0  0
   28.2100   27.6100   33.3300 C   0  0  0  0  0  0  0  0  0  0  0  0
   26.9700   26.9700   33.3100 C   0  0  0  0  0  0  0  0  0  0  0  0
   26.5300   26.2400   32.2200 N   0  0  0  0  0  0  0  0  0  0  0  0
   22.7678   26.1185   35.8214 C   0  0  0  0  0  0  0  0  0  0  0  0
   21.9678   26.4497   34.7712 N   0  0  0  0  0  0  0  0  0  0  0  0
   20.6155   26.3924   34.8373 C   0  0  0  0  0  0  0  0  0  0  0  0
   19.9836   25.9689   36.0099 C   0  0  0  0  0  0  0  0  0  0  0  0
   18.4804   25.9877   36.0922 C   0  0  0  0  0  0  0  0  0  0  0  0
   17.9825   24.9475   37.0458 C   0  0  0  0  0  0  0  0  0  0  0  0
   16.8330   24.4559   36.8800 O   0  0  0  0  0  0  0  0  0  0  0  0
   18.7936   24.5440   38.1626 N   0  0  0  0  0  0  0  0  0  0  0  0
   18.2704   23.5679   39.1218 C   0  0  0  0  0  0  0  0  0  0  0  0
   20.0832   25.2029   38.4137 C   0  0  0  0  0  0  0  0  0  0  0  0
   20.7696   25.6076   37.1233 C   0  0  0  0  0  0  0  0  0  0  0  0
   22.1783   25.7062   37.0367 C   0  0  0  0  0  0  0  0  0  0  0  0
   23.1962   25.3149   38.4287 Cl  0  0  0  0  0  0  0  0  0  0  0  0
   24.7712   26.3099   36.5609 H   0  0  0  0  0  0  0  0  0  0  0  0
   30.0498   29.4792   35.4573 H   0  0  0  0  0  0  0  0  0  0  0  0
   31.6569   29.3901   33.5753 H   0  0  0  0  0  0  0  0  0  0  0  0
   31.0715   28.0646   31.5492 H   0  0  0  0  0  0  0  0  0  0  0  0
   28.8856   26.9764   31.3746 H   0  0  0  0  0  0  0  0  0  0  0  0
   27.1524   25.5359   31.7654 H   0  0  0  0  0  0  0  0  0  0  0  0
   25.6751   26.5393   31.7004 H   0  0  0  0  0  0  0  0  0  0  0  0
   20.0325   26.6872   33.9742 H   0  0  0  0  0  0  0  0  0  0  0  0
   18.0391   25.8017   35.0883 H   0  0  0  0  0  0  0  0  0  0  0  0
   18.1493   26.9875   36.4436 H   0  0  0  0  0  0  0  0  0  0  0  0
   18.9710   23.4164   39.9703 H   0  0  0  0  0  0  0  0  0  0  0  0
   17.3029   23.9257   39.5333 H   0  0  0  0  0  0  0  0  0  0  0  0
   18.1150   22.5926   38.6143 H   0  0  0  0  0  0  0  0  0  0  0  0
   19.9114   26.1132   39.0263 H   0  0  0  0  0  0  0  0  0  0  0  0
   20.7327   24.5136   38.9916 H   0  0  0  0  0  0  0  0  0  0  0  0
  1  2  1  0
  2  3  2  0
  2  4  1  0
  4  5  2  0
  5  6  1  0
  6  7  2  0
  7  8  1  0
  8  9  2  0
  9 10  1  0
 10 11  2  0
 11 12  1  0
 12 13  2  0
 13 14  1  0
  1 15  1  0
 15 16  2  0
 16 17  1  0
 17 18  2  0
 18 19  1  0
 19 20  1  0
 20 21  2  0
 20 22  1  0
 22 23  1  0
 22 24  1  0
 24 25  1  0
 25 26  2  0
 26 27  1  0
 13  4  1  0
 26 15  1  0
 12  7  1  0
 25 18  1  0
  1 28  1  0
  8 29  1  0
  9 30  1  0
 10 31  1  0
 11 32  1  0
 14 33  1  0
 14 34  1  0
 17 35  1  0
 19 36  1  0
 19 37  1  0
 23 38  1  0
 23 39  1  0
 23 40  1  0
 24 41  1  0
 24 42  1  0
M  END
$$$$
confid_2
     RDKit          3D

 42 45  0  0  0  0  0  0  0  0999 V2000
   24.2000   26.2400   35.6900 N   0  0  0  0  0  0  0  0  0  0  0  0
   24.8500   26.2800   34.4800 C   0  0  0  0  0  0  0  0  0  0  0  0
   24.3100   25.7400   33.5400 O   0  0  0  0  0  0  0  0  0  0  0  0
   26.1800   26.9700   34.4700 C   0  0  0  0  0  0  0  0  0  0  0  0
   26.6500   27.6000   35.5500 N   0  0  0  0  0  0  0  0  0  0  0  0
   27.7900   28.2700   35.6200 N   0  0  0  0  0  0  0  0  0  0  0  0
   28.5400   28.3000   34.5100 C   0  0  0  0  0  0  0  0  0  0  0  0
   29.7700   28.9400   34.5600 C   0  0  0  0  0  0  0  0  0  0  0  0
   30.7000   28.8900   33.5000 C   0  0  0  0  0  0  0  0  0  0  0  0
   30.3700   28.1400   32.3700 C   0  0  0  0  0  0  0  0  0  0  0  0
   29.1200   27.5200   32.2800 C   0  0  0  0  0  0  0  0  0  0  0  0
   28.2100   27.6100   33.3300 C   0  0  0  0  0  0  0  0  0  0  0  0
   26.9700   26.9700   33.3100 C   0  0  0  0  0  0  0  0  0  0  0  0
   26.5300   26.2400   32.2200 N   0  0  0  0  0  0  0  0  0  0  0  0
   23.2409   25.2227   36.0474 C   0  0  0  0  0  0  0  0  0  0  0  0
   23.2511   24.0295   35.3929 N   0  0  0  0  0  0  0  0  0  0  0  0
   22.3889   23.0271   35.6906 C   0  0  0  0  0  0  0  0  0  0  0  0
   21.4567   23.1808   36.7210 C   0  0  0  0  0  0  0  0  0  0  0  0
   20.4571   22.0871   36.9882 C   0  0  0  0  0  0  0  0  0  0  0  0
   20.0302   22.0893   38.4226 C   0  0  0  0  0  0  0  0  0  0  0  0
   19.6448   21.0128   38.9547 O   0  0  0  0  0  0  0  0  0  0  0  0
   20.0226   23.3165   39.1723 N   0  0  0  0  0  0  0  0  0  0  0  0
   19.5427   23.3160   40.5565 C   0  0  0  0  0  0  0  0  0  0  0  0
   20.3672   24.5849   38.5146 C   0  0  0  0  0  0  0  0  0  0  0  0
   21.4179   24.3939   37.4383 C   0  0  0  0  0  0  0  0  0  0  0  0
   22.3067   25.4355   37.0839 C   0  0  0  0  0  0  0  0  0  0  0  0
   22.2134   27.0112   37.8805 Cl  0  0  0  0  0  0  0  0  0  0  0  0
   24.4159   26.9762   36.3979 H   0  0  0  0  0  0  0  0  0  0  0  0
   30.0498   29.4792   35.4573 H   0  0  0  0  0  0  0  0  0  0  0  0
   31.6569   29.3901   33.5753 H   0  0  0  0  0  0  0  0  0  0  0  0
   31.0715   28.0646   31.5492 H   0  0  0  0  0  0  0  0  0  0  0  0
   28.8856   26.9764   31.3746 H   0  0  0  0  0  0  0  0  0  0  0  0
   27.1523   25.5356   31.7657 H   0  0  0  0  0  0  0  0  0  0  0  0
   25.6752   26.5394   31.7002 H   0  0  0  0  0  0  0  0  0  0  0  0
   22.4300   22.1089   35.1188 H   0  0  0  0  0  0  0  0  0  0  0  0
   20.8980   21.0963   36.7414 H   0  0  0  0  0  0  0  0  0  0  0  0
   19.5654   22.2465   36.3460 H   0  0  0  0  0  0  0  0  0  0  0  0
   18.5138   22.8998   40.5982 H   0  0  0  0  0  0  0  0  0  0  0  0
   19.5161   24.3435   40.9774 H   0  0  0  0  0  0  0  0  0  0  0  0
   20.2155   22.6947   41.1844 H   0  0  0  0  0  0  0  0  0  0  0  0
   19.4536   25.0118   38.0494 H   0  0  0  0  0  0  0  0  0  0  0  0
   20.7336   25.2996   39.2806 H   0  0  0  0  0  0  0  0  0  0  0  0
  1  2  1  0
  2  3  2  0
  2  4  1  0
  4  5  2  0
  5  6  1  0
  6  7  2  0
  7  8  1  0
  8  9  2  0
  9 10  1  0
 10 11  2  0
 11 12  1  0
 12 13  2  0
 13 14  1  0
  1 15  1  0
 15 16  2  0
 16 17  1  0
 17 18  2  0
 18 19  1  0
 19 20  1  0
 20 21  2  0
 20 22  1  0
 22 23  1  0
 22 24  1  0
 24 25  1  0
 25 26  2  0
 26 27  1  0
 13  4  1  0
 26 15  1  0
 12  7  1  0
 25 18  1  0
  1 28  1  0
  8 29  1  0
  9 30  1  0
 10 31  1  0
 11 32  1  0
 14 33  1  0
 14 34  1  0
 17 35  1  0
 19 36  1  0
 19 37  1  0
 23 38  1  0
 23 39  1  0
 23 40  1  0
 24 41  1  0
 24 42  1  0
M  END
$$$$
confid_3
     RDKit          3D

 42 45  0  0  0  0  0  0  0  0999 V2000
   24.2000   26.2400   35.6900 N   0  0  0  0  0  0  0  0  0  0  0  0
   24.8500   26.2800   34.4800 C   0  0  0  0  0  0  0  0  0  0  0  0
   24.3100   25.7400   33.5400 O   0  0  0  0  0  0  0  0  0  0  0  0
   26.1800   26.9700   34.4700 C   0  0  0  0  0  0  0  0  0  0  0  0
   26.6500   27.6000   35.5500 N   0  0  0  0  0  0  0  0  0  0  0  0
   27.7900   28.2700   35.6200 N   0  0  0  0  0  0  0  0  0  0  0  0
   28.5400   28.3000   34.5100 C   0  0  0  0  0  0  0  0  0  0  0  0
   29.7700   28.9400   34.5600 C   0  0  0  0  0  0  0  0  0  0  0  0
   30.7000   28.8900   33.5000 C   0  0  0  0  0  0  0  0  0  0  0  0
   30.3700   28.1400   32.3700 C   0  0  0  0  0  0  0  0  0  0  0  0
   29.1200   27.5200   32.2800 C   0  0  0  0  0  0  0  0  0  0  0  0
   28.2100   27.6100   33.3300 C   0  0  0  0  0  0  0  0  0  0  0  0
   26.9700   26.9700   33.3100 C   0  0  0  0  0  0  0  0  0  0  0  0
   26.5300   26.2400   32.2200 N   0  0  0  0  0  0  0  0  0  0  0  0
   22.7751   26.0589   35.8252 C   0  0  0  0  0  0  0  0  0  0  0  0
   21.9555   26.3807   34.7877 N   0  0  0  0  0  0  0  0  0  0  0  0
   20.6086   26.2461   34.8546 C   0  0  0  0  0  0  0  0  0  0  0  0
   20.0021   25.7829   36.0262 C   0  0  0  0  0  0  0  0  0  0  0  0
   18.5139   25.5581   36.0519 C   0  0  0  0  0  0  0  0  0  0  0  0
   17.9690   25.6980   37.4384 C   0  0  0  0  0  0  0  0  0  0  0  0
   16.7651   26.0389   37.5970 O   0  0  0  0  0  0  0  0  0  0  0  0
   18.7988   25.4048   38.5758 N   0  0  0  0  0  0  0  0  0  0  0  0
   18.2297   25.4781   39.9237 C   0  0  0  0  0  0  0  0  0  0  0  0
   20.1616   24.8897   38.3836 C   0  0  0  0  0  0  0  0  0  0  0  0
   20.8089   25.4524   37.1335 C   0  0  0  0  0  0  0  0  0  0  0  0
   22.2141   25.5745   37.0262 C   0  0  0  0  0  0  0  0  0  0  0  0
   23.2684   25.0658   38.3515 Cl  0  0  0  0  0  0  0  0  0  0  0  0
   24.7633   26.3435   36.5630 H   0  0  0  0  0  0  0  0  0  0  0  0
   30.0498   29.4792   35.4573 H   0  0  0  0  0  0  0  0  0  0  0  0
   31.6569   29.3901   33.5753 H   0  0  0  0  0  0  0  0  0  0  0  0
   31.0715   28.0646   31.5492 H   0  0  0  0  0  0  0  0  0  0  0  0
   28.8856   26.9763   31.3746 H   0  0  0  0  0  0  0  0  0  0  0  0
   27.1524   25.5359   31.7654 H   0  0  0  0  0  0  0  0  0  0  0  0
   25.6750   26.5393   31.7004 H   0  0  0  0  0  0  0  0  0  0  0  0
   20.0103   26.4959   33.9877 H   0  0  0  0  0  0  0  0  0  0  0  0
   18.0051   26.2901   35.3867 H   0  0  0  0  0  0  0  0  0  0  0  0
   18.2961   24.5350   35.6807 H   0  0  0  0  0  0  0  0  0  0  0  0
   17.9414   26.5258   40.1507 H   0  0  0  0  0  0  0  0  0  0  0  0
   18.9583   25.1398   40.6910 H   0  0  0  0  0  0  0  0  0  0  0  0
   17.3322   24.8274   39.9895 H   0  0  0  0  0  0  0  0  0  0  0  0
   20.7713   25.1487   39.2739 H   0  0  0  0  0  0  0  0  0  0  0  0
   20.1220   23.7830   38.2980 H   0  0  0  0  0  0  0  0  0  0  0  0
  1  2  1  0
  2  3  2  0
  2  4  1  0
  4  5  2  0
  5  6  1  0
  6  7  2  0
  7  8  1  0
  8  9  2  0
  9 10  1  0
 10 11  2  0
 11 12  1  0
 12 13  2  0
 13 14  1  0
  1 15  1  0
 15 16  2  0
 16 17  1  0
 17 18  2  0
 18 19  1  0
 19 20  1  0
 20 21  2  0
 20 22  1  0
 22 23  1  0
 22 24  1  0
 24 25  1  0
 25 26  2  0
 26 27  1  0
 13  4  1  0
 26 15  1  0
 12  7  1  0
 25 18  1  0
  1 28  1  0
  8 29  1  0
  9 30  1  0
 10 31  1  0
 11 32  1  0
 14 33  1  0
 14 34  1  0
 17 35  1  0
 19 36  1  0
 19 37  1  0
 23 38  1  0
 23 39  1  0
 23 40  1  0
 24 41  1  0
 24 42  1  0
M  END
$$$$
