confid_0
     RDKit          3D

 44 48  0  0  0  0  0  0  0  0999 V2000
   24.6900   26.1200   35.5300 N   0  0  0  0  0  0  0  0  0  0  0  0
   25.6600   25.6700   34.6600 C   0  0  0  0  0  0  0  0  0  0  0  0
   25.2400   25.0100   33.7200 O   0  0  0  0  0  0  0  0  0  0  0  0
   27.0300   26.2200   34.8800 C   0  0  0  0  0  0  0  0  0  0  0  0
   27.3500   26.7300   36.0700 N   0  0  0  0  0  0  0  0  0  0  0  0
   28.5700   27.1800   36.3300 N   0  0  0  0  0  0  0  0  0  0  0  0
   29.5300   27.1100   35.3900 C   0  0  0  0  0  0  0  0  0  0  0  0
   30.8300   27.5700   35.6500 C   0  0  0  0  0  0  0  0  0  0  0  0
   31.8500   27.5400   34.6900 C   0  0  0  0  0  0  0  0  0  0  0  0
   31.5100   27.1200   33.4000 C   0  0  0  0  0  0  0  0  0  0  0  0
   30.2200   26.6300   33.1100 C   0  0  0  0  0  0  0  0  0  0  0  0
   29.2400   26.6600   34.1000 C   0  0  0  0  0  0  0  0  0  0  0  0
   27.9300   26.2600   33.8100 C   0  0  0  0  0  0  0  0  0  0  0  0
   27.5200   25.7100   32.6100 N   0  0  0  0  0  0  0  0  0  0  0  0
   23.2690   25.9162   35.3882 C   0  0  0  0  0  0  0  0  0  0  0  0
   22.8345   24.8314   34.8080 N   0  0  0  0  0  0  0  0  0  0  0  0
   21.4992   24.3784   34.5525 C   0  0  0  0  0  0  0  0  0  0  0  0
   20.5588   24.3821   35.4881 C   0  0  0  0  0  0  0  0  0  0  0  0
   19.2435   23.7093   35.7546 C   0  0  0  0  0  0  0  0  0  0  0  0
   19.1023   24.2173   37.0425 O   0  0  0  0  0  0  0  0  0  0  0  0
   20.2986   24.9119   36.8652 C   0  0  0  0  0  0  0  0  0  0  0  0
   20.0304   26.4182   36.8650 C   0  0  0  0  0  0  0  0  0  0  0  0
   21.1844   27.2333   36.3714 C   0  0  0  0  0  0  0  0  0  0  0  0
   22.4013   27.0422   35.8060 C   0  0  0  0  0  0  0  0  0  0  0  0
   22.6580   28.4554   35.8173 N   0  0  0  0  0  0  0  0  0  0  0  0
   21.3844   28.6695   36.3634 C   0  0  0  0  0  0  0  0  0  0  0  0
   20.7117   29.6782   36.7060 O   0  0  0  0  0  0  0  0  0  0  0  0
   23.7964   29.3063   35.5049 C   0  0  0  0  0  0  0  0  0  0  0  0
   24.9597   26.7681   36.3060 H   0  0  0  0  0  0  0  0  0  0  0  0
   31.0674   27.9415   36.6391 H   0  0  0  0  0  0  0  0  0  0  0  0
   32.8484   27.8871   34.9217 H   0  0  0  0  0  0  0  0  0  0  0  0
   32.2653   27.1211   32.6246 H   0  0  0  0  0  0  0  0  0  0  0  0
   30.0114   26.2785   32.1077 H   0  0  0  0  0  0  0  0  0  0  0  0
   27.3403   24.6834   32.5421 H   0  0  0  0  0  0  0  0  0  0  0  0
   27.6979   26.2234   31.7186 H   0  0  0  0  0  0  0  0  0  0  0  0
   21.3294   23.7636   33.6794 H   0  0  0  0  0  0  0  0  0  0  0  0
   18.4377   24.0759   35.0795 H   0  0  0  0  0  0  0  0  0  0  0  0
   19.3380   22.6008   35.7681 H   0  0  0  0  0  0  0  0  0  0  0  0
   21.0719   24.5936   37.6010 H   0  0  0  0  0  0  0  0  0  0  0  0
   19.1454   26.6502   36.2298 H   0  0  0  0  0  0  0  0  0  0  0  0
   19.7934   26.7351   37.9053 H   0  0  0  0  0  0  0  0  0  0  0  0
   23.4419   30.3206   35.2236 H   0  0  0  0  0  0  0  0  0  0  0  0
   24.4583   29.3804   36.3937 H   0  0  0  0  0  0  0  0  0  0  0  0
   24.3665   28.8724   34.6557 H   0  0  0  0  0  0  0  0  0  0  0  0
  1  2  1  0
  2  3  2  0
  2  4  1  0
  4  5  2  0
  5  6  1  0
  6  7  2  0
  7  8  1  0
  8  9  2  0
  9 10  1  0
 10 11  2  0
 11 12  1  0
 12 13  2  0
 13 14  1  0
  1 15  1  0
 15 16  2  0
 16 17  1  0
 17 18  2  0
 18 19  1  0
 19 20  1  0
 20 21  1  0
 21 22  1  0
 22 23  1  0
 23 24  2  0
 24 25  1  0
 25 26  1  0
 26 27  2  0
 25 28  1  0
 13  4  1  0
 24 15  1  0
 12  7  1  0
 21 18  1  0
 26 23  1  0
  1 29  1  0
  8 30  1  0
  9 31  1  0
 10 32  1  0
 11 33  1  0
 14 34  1  0
 14 35  1  0
 17 36  1  0
 19 37  1  0
 19 38  1  0
 21 39  1  0
 22 40  1  0
 22 41  1  0
 28 42  1  0
 28 43  1  0
 28 44  1  0
M  END
$$$$
