confid_0
     RDKit          3D

 42 45  0  0  0  0  0  0  0  0999 V2000
   25.3300   26.2600   34.7600 N   0  0  0  0  0  0  0  0  0  0  0  0
   26.1200   25.9200   33.6900 C   0  0  0  0  0  0  0  0  0  0  0  0
   25.6300   25.1100   32.9400 O   0  0  0  0  0  0  0  0  0  0  0  0
   27.5200   26.3800   33.4600 C   0  0  0  0  0  0  0  0  0  0  0  0
   28.1600   26.6300   34.6100 N   0  0  0  0  0  0  0  0  0  0  0  0
   29.4800   26.8500   34.5700 N   0  0  0  0  0  0  0  0  0  0  0  0
   30.1900   26.7800   33.4400 C   0  0  0  0  0  0  0  0  0  0  0  0
   31.5600   27.0500   33.5000 C   0  0  0  0  0  0  0  0  0  0  0  0
   32.2700   27.2400   32.3100 C   0  0  0  0  0  0  0  0  0  0  0  0
   31.6100   27.2500   31.0800 C   0  0  0  0  0  0  0  0  0  0  0  0
   30.2700   26.8700   31.0600 C   0  0  0  0  0  0  0  0  0  0  0  0
   29.5100   26.6900   32.2300 C   0  0  0  0  0  0  0  0  0  0  0  0
   28.1400   26.4100   32.2000 C   0  0  0  0  0  0  0  0  0  0  0  0
   27.4300   26.1300   31.0500 N   0  0  0  0  0  0  0  0  0  0  0  0
   24.1699   25.5350   35.2218 C   0  0  0  0  0  0  0  0  0  0  0  0
   23.9270   24.2667   34.7884 N   0  0  0  0  0  0  0  0  0  0  0  0
   22.8584   23.5454   35.2132 C   0  0  0  0  0  0  0  0  0  0  0  0
   21.9527   24.0982   36.1255 C   0  0  0  0  0  0  0  0  0  0  0  0
   20.8028   23.2724   36.6492 C   0  0  0  0  0  0  0  0  0  0  0  0
   19.6016   24.1589   36.9932 C   0  0  0  0  0  0  0  0  0  0  0  0
   20.0088   25.2539   37.8826 N   0  0  0  0  0  0  0  0  0  0  0  0
   21.2314   25.9600   37.6033 C   0  0  0  0  0  0  0  0  0  0  0  0
   21.4934   27.0347   38.2098 O   0  0  0  0  0  0  0  0  0  0  0  0
   22.1842   25.3969   36.6176 C   0  0  0  0  0  0  0  0  0  0  0  0
   23.3015   26.1199   36.1588 C   0  0  0  0  0  0  0  0  0  0  0  0
   23.5382   27.3824   36.6003 F   0  0  0  0  0  0  0  0  0  0  0  0
   19.1651   25.6597   39.0087 C   0  0  0  0  0  0  0  0  0  0  0  0
   25.6122   27.1138   35.2923 H   0  0  0  0  0  0  0  0  0  0  0  0
   32.0668   27.1429   34.4530 H   0  0  0  0  0  0  0  0  0  0  0  0
   33.3284   27.4627   32.3495 H   0  0  0  0  0  0  0  0  0  0  0  0
   32.1496   27.4414   30.1613 H   0  0  0  0  0  0  0  0  0  0  0  0
   29.7983   26.8254   30.0886 H   0  0  0  0  0  0  0  0  0  0  0  0
   26.4124   26.3493   30.9737 H   0  0  0  0  0  0  0  0  0  0  0  0
   27.8914   25.7239   30.2072 H   0  0  0  0  0  0  0  0  0  0  0  0
   22.7190   22.5381   34.8425 H   0  0  0  0  0  0  0  0  0  0  0  0
   20.4878   22.5205   35.8931 H   0  0  0  0  0  0  0  0  0  0  0  0
   21.1356   22.7319   37.5613 H   0  0  0  0  0  0  0  0  0  0  0  0
   18.8138   23.5318   37.4638 H   0  0  0  0  0  0  0  0  0  0  0  0
   19.1848   24.5902   36.0570 H   0  0  0  0  0  0  0  0  0  0  0  0
   18.8573   26.7194   38.8843 H   0  0  0  0  0  0  0  0  0  0  0  0
   19.7321   25.5518   39.9573 H   0  0  0  0  0  0  0  0  0  0  0  0
   18.2475   25.0380   39.0739 H   0  0  0  0  0  0  0  0  0  0  0  0
  1  2  1  0
  2  3  2  0
  2  4  1  0
  4  5  2  0
  5  6  1  0
  6  7  2  0
  7  8  1  0
  8  9  2  0
  9 10  1  0
 10 11  2  0
 11 12  1  0
 12 13  2  0
 13 14  1  0
  1 15  1  0
 15 16  2  0
 16 17  1  0
 17 18  2  0
 18 19  1  0
 19 20  1  0
 20 21  1  0
 21 22  1  0
 22 23  2  0
 22 24  1  0
 24 25  2  0
 25 26  1  0
 21 27  1  0
 13  4  1  0
 25 15  1  0
 12  7  1  0
 24 18  1  0
  1 28  1  0
  8 29  1  0
  9 30  1  0
 10 31  1  0
 11 32  1  0
 14 33  1  0
 14 34  1  0
 17 35  1  0
 19 36  1  0
 19 37  1  0
 20 38  1  0
 20 39  1  0
 27 40  1  0
 27 41  1  0
 27 42  1  0
M  END
$$$$
confid_1
     RDKit          3D

 42 45  0  0  0  0  0  0  0  0999 V2000
   25.3300   26.2600   34.7600 N   0  0  0  0  0  0  0  0  0  0  0  0
   26.1200   25.9200   33.6900 C   0  0  0  0  0  0  0  0  0  0  0  0
   25.6300   25.1100   32.9400 O   0  0  0  0  0  0  0  0  0  0  0  0
   27.5200   26.3800   33.4600 C   0  0  0  0  0  0  0  0  0  0  0  0
   28.1600   26.6300   34.6100 N   0  0  0  0  0  0  0  0  0  0  0  0
   29.4800   26.8500   34.5700 N   0  0  0  0  0  0  0  0  0  0  0  0
   30.1900   26.7800   33.4400 C   0  0  0  0  0  0  0  0  0  0  0  0
   31.5600   27.0500   33.5000 C   0  0  0  0  0  0  0  0  0  0  0  0
   32.2700   27.2400   32.3100 C   0  0  0  0  0  0  0  0  0  0  0  0
   31.6100   27.2500   31.0800 C   0  0  0  0  0  0  0  0  0  0  0  0
   30.2700   26.8700   31.0600 C   0  0  0  0  0  0  0  0  0  0  0  0
   29.5100   26.6900   32.2300 C   0  0  0  0  0  0  0  0  0  0  0  0
   28.1400   26.4100   32.2000 C   0  0  0  0  0  0  0  0  0  0  0  0
   27.4300   26.1300   31.0500 N   0  0  0  0  0  0  0  0  0  0  0  0
   24.1704   25.5346   35.2228 C   0  0  0  0  0  0  0  0  0  0  0  0
   23.9239   24.2686   34.7848 N   0  0  0  0  0  0  0  0  0  0  0  0
   22.8588   23.5452   35.2146 C   0  0  0  0  0  0  0  0  0  0  0  0
   21.9735   24.0845   36.1546 C   0  0  0  0  0  0  0  0  0  0  0  0
   20.7526   23.3066   36.5819 C   0  0  0  0  0  0  0  0  0  0  0  0
   20.3580   23.6508   38.0217 C   0  0  0  0  0  0  0  0  0  0  0  0
   20.2322   25.1044   38.1866 N   0  0  0  0  0  0  0  0  0  0  0  0
   21.2316   25.9606   37.6038 C   0  0  0  0  0  0  0  0  0  0  0  0
   21.2737   27.1833   37.9113 O   0  0  0  0  0  0  0  0  0  0  0  0
   22.1888   25.3942   36.6242 C   0  0  0  0  0  0  0  0  0  0  0  0
   23.3019   26.1199   36.1595 C   0  0  0  0  0  0  0  0  0  0  0  0
   23.5438   27.3790   36.6077 F   0  0  0  0  0  0  0  0  0  0  0  0
   19.1380   25.6790   38.9722 C   0  0  0  0  0  0  0  0  0  0  0  0
   25.6124   27.1138   35.2922 H   0  0  0  0  0  0  0  0  0  0  0  0
   32.0668   27.1429   34.4530 H   0  0  0  0  0  0  0  0  0  0  0  0
   33.3284   27.4627   32.3495 H   0  0  0  0  0  0  0  0  0  0  0  0
   32.1496   27.4414   30.1613 H   0  0  0  0  0  0  0  0  0  0  0  0
   29.7983   26.8254   30.0886 H   0  0  0  0  0  0  0  0  0  0  0  0
   26.4124   26.3493   30.9737 H   0  0  0  0  0  0  0  0  0  0  0  0
   27.8914   25.7239   30.2072 H   0  0  0  0  0  0  0  0  0  0  0  0
   22.7026   22.5489   34.8212 H   0  0  0  0  0  0  0  0  0  0  0  0
   20.9446   22.2134   36.5151 H   0  0  0  0  0  0  0  0  0  0  0  0
   19.9117   23.5555   35.8993 H   0  0  0  0  0  0  0  0  0  0  0  0
   21.1411   23.2752   38.7157 H   0  0  0  0  0  0  0  0  0  0  0  0
   19.4044   23.1354   38.2671 H   0  0  0  0  0  0  0  0  0  0  0  0
   18.5357   26.3576   38.3322 H   0  0  0  0  0  0  0  0  0  0  0  0
   18.4695   24.8898   39.3760 H   0  0  0  0  0  0  0  0  0  0  0  0
   19.5517   26.2536   39.8277 H   0  0  0  0  0  0  0  0  0  0  0  0
  1  2  1  0
  2  3  2  0
  2  4  1  0
  4  5  2  0
  5  6  1  0
  6  7  2  0
  7  8  1  0
  8  9  2  0
  9 10  1  0
 10 11  2  0
 11 12  1  0
 12 13  2  0
 13 14  1  0
  1 15  1  0
 15 16  2  0
 16 17  1  0
 17 18  2  0
 18 19  1  0
 19 20  1  0
 20 21  1  0
 21 22  1  0
 22 23  2  0
 22 24  1  0
 24 25  2  0
 25 26  1  0
 21 27  1  0
 13  4  1  0
 25 15  1  0
 12  7  1  0
 24 18  1  0
  1 28  1  0
  8 29  1  0
  9 30  1  0
 10 31  1  0
 11 32  1  0
 14 33  1  0
 14 34  1  0
 17 35  1  0
 19 36  1  0
 19 37  1  0
 20 38  1  0
 20 39  1  0
 27 40  1  0
 27 41  1  0
 27 42  1  0
M  END
$$$$
confid_2
     RDKit          3D

 42 45  0  0  0  0  0  0  0  0999 V2000
   25.3300   26.2600   34.7600 N   0  0  0  0  0  0  0  0  0  0  0  0
   26.1200   25.9200   33.6900 C   0  0  0  0  0  0  0  0  0  0  0  0
   25.6300   25.1100   32.9400 O   0  0  0  0  0  0  0  0  0  0  0  0
   27.5200   26.3800   33.4600 C   0  0  0  0  0  0  0  0  0  0  0  0
   28.1600   26.6300   34.6100 N   0  0  0  0  0  0  0  0  0  0  0  0
   29.4800   26.8500   34.5700 N   0  0  0  0  0  0  0  0  0  0  0  0
   30.1900   26.7800   33.4400 C   0  0  0  0  0  0  0  0  0  0  0  0
   31.5600   27.0500   33.5000 C   0  0  0  0  0  0  0  0  0  0  0  0
   32.2700   27.2400   32.3100 C   0  0  0  0  0  0  0  0  0  0  0  0
   31.6100   27.2500   31.0800 C   0  0  0  0  0  0  0  0  0  0  0  0
   30.2700   26.8700   31.0600 C   0  0  0  0  0  0  0  0  0  0  0  0
   29.5100   26.6900   32.2300 C   0  0  0  0  0  0  0  0  0  0  0  0
   28.1400   26.4100   32.2000 C   0  0  0  0  0  0  0  0  0  0  0  0
   27.4300   26.1300   31.0500 N   0  0  0  0  0  0  0  0  0  0  0  0
   23.8979   26.0917   34.8297 C   0  0  0  0  0  0  0  0  0  0  0  0
   23.1779   25.8135   33.7073 N   0  0  0  0  0  0  0  0  0  0  0  0
   21.8280   25.6717   33.7264 C   0  0  0  0  0  0  0  0  0  0  0  0
   21.1197   25.8284   34.9231 C   0  0  0  0  0  0  0  0  0  0  0  0
   19.6273   25.6048   34.9573 C   0  0  0  0  0  0  0  0  0  0  0  0
   18.9656   26.4760   36.0299 C   0  0  0  0  0  0  0  0  0  0  0  0
   19.6308   26.2898   37.3256 N   0  0  0  0  0  0  0  0  0  0  0  0
   21.0687   26.2488   37.3708 C   0  0  0  0  0  0  0  0  0  0  0  0
   21.6683   26.3123   38.4789 O   0  0  0  0  0  0  0  0  0  0  0  0
   21.8295   26.1063   36.1069 C   0  0  0  0  0  0  0  0  0  0  0  0
   23.2292   26.2471   36.0556 C   0  0  0  0  0  0  0  0  0  0  0  0
   23.9384   26.5309   37.1786 F   0  0  0  0  0  0  0  0  0  0  0  0
   18.8525   26.1967   38.5626 C   0  0  0  0  0  0  0  0  0  0  0  0
   25.7973   26.7283   35.5684 H   0  0  0  0  0  0  0  0  0  0  0  0
   32.0668   27.1425   34.4530 H   0  0  0  0  0  0  0  0  0  0  0  0
   33.3288   27.4608   32.3494 H   0  0  0  0  0  0  0  0  0  0  0  0
   32.1515   27.4335   30.1608 H   0  0  0  0  0  0  0  0  0  0  0  0
   29.8039   26.7906   30.0880 H   0  0  0  0  0  0  0  0  0  0  0  0
   27.5769   26.6941   30.1847 H   0  0  0  0  0  0  0  0  0  0  0  0
   26.8605   25.2629   30.9528 H   0  0  0  0  0  0  0  0  0  0  0  0
   21.3079   25.4355   32.8071 H   0  0  0  0  0  0  0  0  0  0  0  0
   19.4302   24.5337   35.1786 H   0  0  0  0  0  0  0  0  0  0  0  0
   19.1749   25.8464   33.9708 H   0  0  0  0  0  0  0  0  0  0  0  0
   17.8871   26.2147   36.0915 H   0  0  0  0  0  0  0  0  0  0  0  0
   19.0448   27.5446   35.7336 H   0  0  0  0  0  0  0  0  0  0  0  0
   17.7627   26.2721   38.3637 H   0  0  0  0  0  0  0  0  0  0  0  0
   19.1373   27.0224   39.2483 H   0  0  0  0  0  0  0  0  0  0  0  0
   19.0539   25.2234   39.0575 H   0  0  0  0  0  0  0  0  0  0  0  0
  1  2  1  0
  2  3  2  0
  2  4  1  0
  4  5  2  0
  5  6  1  0
  6  7  2  0
  7  8  1  0
  8  9  2  0
  9 10  1  0
 10 11  2  0
 11 12  1  0
 12 13  2  0
 13 14  1  0
  1 15  1  0
 15 16  2  0
 16 17  1  0
 17 18  2  0
 18 19  1  0
 19 20  1  0
 20 21  1  0
 21 22  1  0
 22 23  2  0
 22 24  1  0
 24 25  2  0
 25 26  1  0
 21 27  1  0
 13  4  1  0
 25 15  1  0
 12  7  1  0
 24 18  1  0
  1 28  1  0
  8 29  1  0
  9 30  1  0
 10 31  1  0
 11 32  1  0
 14 33  1  0
 14 34  1  0
 17 35  1  0
 19 36  1  0
 19 37  1  0
 20 38  1  0
 20 39  1  0
 27 40  1  0
 27 41  1  0
 27 42  1  0
M  END
$$$$
confid_3
     RDKit          3D

 42 45  0  0  0  0  0  0  0  0999 V2000
   25.3300   26.2600   34.7600 N   0  0  0  0  0  0  0  0  0  0  0  0
   26.1200   25.9200   33.6900 C   0  0  0  0  0  0  0  0  0  0  0  0
   25.6300   25.1100   32.9400 O   0  0  0  0  0  0  0  0  0  0  0  0
   27.5200   26.3800   33.4600 C   0  0  0  0  0  0  0  0  0  0  0  0
   28.1600   26.6300   34.6100 N   0  0  0  0  0  0  0  0  0  0  0  0
   29.4800   26.8500   34.5700 N   0  0  0  0  0  0  0  0  0  0  0  0
   30.1900   26.7800   33.4400 C   0  0  0  0  0  0  0  0  0  0  0  0
   31.5600   27.0500   33.5000 C   0  0  0  0  0  0  0  0  0  0  0  0
   32.2700   27.2400   32.3100 C   0  0  0  0  0  0  0  0  0  0  0  0
   31.6100   27.2500   31.0800 C   0  0  0  0  0  0  0  0  0  0  0  0
   30.2700   26.8700   31.0600 C   0  0  0  0  0  0  0  0  0  0  0  0
   29.5100   26.6900   32.2300 C   0  0  0  0  0  0  0  0  0  0  0  0
   28.1400   26.4100   32.2000 C   0  0  0  0  0  0  0  0  0  0  0  0
   27.4300   26.1300   31.0500 N   0  0  0  0  0  0  0  0  0  0  0  0
   23.8974   26.0954   34.8270 C   0  0  0  0  0  0  0  0  0  0  0  0
   23.1780   25.8277   33.7017 N   0  0  0  0  0  0  0  0  0  0  0  0
   21.8282   25.6844   33.7192 C   0  0  0  0  0  0  0  0  0  0  0  0
   21.1221   25.8052   34.9213 C   0  0  0  0  0  0  0  0  0  0  0  0
   19.6155   25.7129   34.9295 C   0  0  0  0  0  0  0  0  0  0  0  0
   19.1068   25.1508   36.2609 C   0  0  0  0  0  0  0  0  0  0  0  0
   19.6684   25.9079   37.3866 N   0  0  0  0  0  0  0  0  0  0  0  0
   21.0640   26.2586   37.3629 C   0  0  0  0  0  0  0  0  0  0  0  0
   21.6203   26.7092   38.4016 O   0  0  0  0  0  0  0  0  0  0  0  0
   21.8275   26.1078   36.1016 C   0  0  0  0  0  0  0  0  0  0  0  0
   23.2269   26.2514   36.0518 C   0  0  0  0  0  0  0  0  0  0  0  0
   23.9360   26.5218   37.1783 F   0  0  0  0  0  0  0  0  0  0  0  0
   18.8402   26.2609   38.5416 C   0  0  0  0  0  0  0  0  0  0  0  0
   25.7975   26.7255   35.5699 H   0  0  0  0  0  0  0  0  0  0  0  0
   32.0668   27.1429   34.4530 H   0  0  0  0  0  0  0  0  0  0  0  0
   33.3284   27.4627   32.3495 H   0  0  0  0  0  0  0  0  0  0  0  0
   32.1496   27.4414   30.1613 H   0  0  0  0  0  0  0  0  0  0  0  0
   29.7983   26.8254   30.0886 H   0  0  0  0  0  0  0  0  0  0  0  0
   27.8914   25.7241   30.2071 H   0  0  0  0  0  0  0  0  0  0  0  0
   26.4123   26.3491   30.9739 H   0  0  0  0  0  0  0  0  0  0  0  0
   21.3059   25.4811   32.7932 H   0  0  0  0  0  0  0  0  0  0  0  0
   19.2614   25.0561   34.1051 H   0  0  0  0  0  0  0  0  0  0  0  0
   19.1931   26.7287   34.7724 H   0  0  0  0  0  0  0  0  0  0  0  0
   17.9960   25.1880   36.2669 H   0  0  0  0  0  0  0  0  0  0  0  0
   19.4162   24.0868   36.3512 H   0  0  0  0  0  0  0  0  0  0  0  0
   17.7980   25.8975   38.4208 H   0  0  0  0  0  0  0  0  0  0  0  0
   18.8170   27.3646   38.6605 H   0  0  0  0  0  0  0  0  0  0  0  0
   19.2625   25.8022   39.4605 H   0  0  0  0  0  0  0  0  0  0  0  0
  1  2  1  0
  2  3  2  0
  2  4  1  0
  4  5  2  0
  5  6  1  0
  6  7  2  0
  7  8  1  0
  8  9  2  0
  9 10  1  0
 10 11  2  0
 11 12  1  0
 12 13  2  0
 13 14  1  0
  1 15  1  0
 15 16  2  0
 16 17  1  0
 17 18  2  0
 18 19  1  0
 19 20  1  0
 20 21  1  0
 21 22  1  0
 22 23  2  0
 22 24  1  0
 24 25  2  0
 25 26  1  0
 21 27  1  0
 13  4  1  0
 25 15  1  0
 12  7  1  0
 24 18  1  0
  1 28  1  0
  8 29  1  0
  9 30  1  0
 10 31  1  0
 11 32  1  0
 14 33  1  0
 14 34  1  0
 17 35  1  0
 19 36  1  0
 19 37  1  0
 20 38  1  0
 20 39  1  0
 27 40  1  0
 27 41  1  0
 27 42  1  0
M  END
$$$$
