confid_0
     RDKit          3D

 35 37  0  0  0  0  0  0  0  0999 V2000
   24.5700   26.8800   35.5900 N   0  0  0  0  0  0  0  0  0  0  0  0
   25.5000   26.4000   34.6900 C   0  0  0  0  0  0  0  0  0  0  0  0
   25.1700   25.5200   33.9100 O   0  0  0  0  0  0  0  0  0  0  0  0
   26.8400   27.0200   34.7400 C   0  0  0  0  0  0  0  0  0  0  0  0
   27.3800   27.2800   35.9400 N   0  0  0  0  0  0  0  0  0  0  0  0
   28.6200   27.7400   36.0300 N   0  0  0  0  0  0  0  0  0  0  0  0
   29.3800   28.0000   34.9600 C   0  0  0  0  0  0  0  0  0  0  0  0
   30.6700   28.5000   35.1300 C   0  0  0  0  0  0  0  0  0  0  0  0
   31.5400   28.6100   34.0300 C   0  0  0  0  0  0  0  0  0  0  0  0
   31.0900   28.2200   32.7700 C   0  0  0  0  0  0  0  0  0  0  0  0
   29.8000   27.7000   32.6000 C   0  0  0  0  0  0  0  0  0  0  0  0
   28.9600   27.5500   33.7100 C   0  0  0  0  0  0  0  0  0  0  0  0
   27.6600   27.0300   33.5900 C   0  0  0  0  0  0  0  0  0  0  0  0
   27.1600   26.7400   32.3400 N   0  0  0  0  0  0  0  0  0  0  0  0
   33.1560   29.2733   34.2358 S   0  0  0  0  0  6  0  0  0  0  0  0
   34.0879   28.6799   33.2159 O   0  0  0  0  0  0  0  0  0  0  0  0
   33.6801   28.9298   35.6025 O   0  0  0  0  0  0  0  0  0  0  0  0
   33.0871   31.0202   34.0411 C   0  0  0  0  0  0  0  0  0  0  0  0
   33.2499   31.5952   32.7727 C   0  0  0  0  0  0  0  0  0  0  0  0
   33.1741   32.9826   32.6155 C   0  0  0  0  0  0  0  0  0  0  0  0
   32.9294   33.8015   33.7232 C   0  0  0  0  0  0  0  0  0  0  0  0
   32.8325   35.5416   33.5247 Cl  0  0  0  0  0  0  0  0  0  0  0  0
   32.7574   33.2302   34.9888 C   0  0  0  0  0  0  0  0  0  0  0  0
   32.8329   31.8429   35.1475 C   0  0  0  0  0  0  0  0  0  0  0  0
   24.7884   27.6687   36.2395 H   0  0  0  0  0  0  0  0  0  0  0  0
   23.6076   26.4746   35.6186 H   0  0  0  0  0  0  0  0  0  0  0  0
   31.0063   28.7954   36.1167 H   0  0  0  0  0  0  0  0  0  0  0  0
   31.7347   28.3246   31.9065 H   0  0  0  0  0  0  0  0  0  0  0  0
   29.5003   27.4266   31.5989 H   0  0  0  0  0  0  0  0  0  0  0  0
   27.7098   26.1836   31.6492 H   0  0  0  0  0  0  0  0  0  0  0  0
   26.1713   26.9660   32.0917 H   0  0  0  0  0  0  0  0  0  0  0  0
   33.4307   30.9711   31.9068 H   0  0  0  0  0  0  0  0  0  0  0  0
   33.3026   33.4192   31.6333 H   0  0  0  0  0  0  0  0  0  0  0  0
   32.5625   33.8589   35.8482 H   0  0  0  0  0  0  0  0  0  0  0  0
   32.6892   31.4116   36.1300 H   0  0  0  0  0  0  0  0  0  0  0  0
  1  2  1  0
  2  3  2  0
  2  4  1  0
  4  5  2  0
  5  6  1  0
  6  7  2  0
  7  8  1  0
  8  9  2  0
  9 10  1  0
 10 11  2  0
 11 12  1  0
 12 13  2  0
 13 14  1  0
  9 15  1  0
 15 16  2  0
 15 17  2  0
 15 18  1  0
 18 19  2  0
 19 20  1  0
 20 21  2  0
 21 22  1  0
 21 23  1  0
 23 24  2  0
 13  4  1  0
 24 18  1  0
 12  7  1  0
  1 25  1  0
  1 26  1  0
  8 27  1  0
 10 28  1  0
 11 29  1  0
 14 30  1  0
 14 31  1  0
 19 32  1  0
 20 33  1  0
 23 34  1  0
 24 35  1  0
M  END
$$$$
confid_1
     RDKit          3D

 35 37  0  0  0  0  0  0  0  0999 V2000
   24.5700   26.8800   35.5900 N   0  0  0  0  0  0  0  0  0  0  0  0
   25.5000   26.4000   34.6900 C   0  0  0  0  0  0  0  0  0  0  0  0
   25.1700   25.5200   33.9100 O   0  0  0  0  0  0  0  0  0  0  0  0
   26.8400   27.0200   34.7400 C   0  0  0  0  0  0  0  0  0  0  0  0
   27.3800   27.2800   35.9400 N   0  0  0  0  0  0  0  0  0  0  0  0
   28.6200   27.7400   36.0300 N   0  0  0  0  0  0  0  0  0  0  0  0
   29.3800   28.0000   34.9600 C   0  0  0  0  0  0  0  0  0  0  0  0
   30.6700   28.5000   35.1300 C   0  0  0  0  0  0  0  0  0  0  0  0
   31.5400   28.6100   34.0300 C   0  0  0  0  0  0  0  0  0  0  0  0
   31.0900   28.2200   32.7700 C   0  0  0  0  0  0  0  0  0  0  0  0
   29.8000   27.7000   32.6000 C   0  0  0  0  0  0  0  0  0  0  0  0
   28.9600   27.5500   33.7100 C   0  0  0  0  0  0  0  0  0  0  0  0
   27.6600   27.0300   33.5900 C   0  0  0  0  0  0  0  0  0  0  0  0
   27.1600   26.7400   32.3400 N   0  0  0  0  0  0  0  0  0  0  0  0
   33.1803   29.2062   34.2480 S   0  0  0  0  0  6  0  0  0  0  0  0
   33.6452   29.8992   32.9973 O   0  0  0  0  0  0  0  0  0  0  0  0
   33.2179   30.2015   35.3744 O   0  0  0  0  0  0  0  0  0  0  0  0
   34.2389   27.8491   34.6112 C   0  0  0  0  0  0  0  0  0  0  0  0
   34.8685   27.1483   33.5728 C   0  0  0  0  0  0  0  0  0  0  0  0
   35.6930   26.0564   33.8612 C   0  0  0  0  0  0  0  0  0  0  0  0
   35.8877   25.6557   35.1876 C   0  0  0  0  0  0  0  0  0  0  0  0
   36.9205   24.2846   35.5482 Cl  0  0  0  0  0  0  0  0  0  0  0  0
   35.2535   26.3472   36.2255 C   0  0  0  0  0  0  0  0  0  0  0  0
   34.4287   27.4393   35.9386 C   0  0  0  0  0  0  0  0  0  0  0  0
   24.7885   27.6687   36.2396 H   0  0  0  0  0  0  0  0  0  0  0  0
   23.6076   26.4745   35.6186 H   0  0  0  0  0  0  0  0  0  0  0  0
   31.0129   28.7772   36.1197 H   0  0  0  0  0  0  0  0  0  0  0  0
   31.7449   28.2964   31.9113 H   0  0  0  0  0  0  0  0  0  0  0  0
   29.5085   27.3791   31.6091 H   0  0  0  0  0  0  0  0  0  0  0  0
   26.7459   25.8071   32.1266 H   0  0  0  0  0  0  0  0  0  0  0  0
   27.2459   27.4245   31.5560 H   0  0  0  0  0  0  0  0  0  0  0  0
   34.7182   27.4434   32.5421 H   0  0  0  0  0  0  0  0  0  0  0  0
   36.1771   25.5214   33.0541 H   0  0  0  0  0  0  0  0  0  0  0  0
   35.3965   26.0379   37.2530 H   0  0  0  0  0  0  0  0  0  0  0  0
   33.9361   27.9610   36.7492 H   0  0  0  0  0  0  0  0  0  0  0  0
  1  2  1  0
  2  3  2  0
  2  4  1  0
  4  5  2  0
  5  6  1  0
  6  7  2  0
  7  8  1  0
  8  9  2  0
  9 10  1  0
 10 11  2  0
 11 12  1  0
 12 13  2  0
 13 14  1  0
  9 15  1  0
 15 16  2  0
 15 17  2  0
 15 18  1  0
 18 19  2  0
 19 20  1  0
 20 21  2  0
 21 22  1  0
 21 23  1  0
 23 24  2  0
 13  4  1  0
 24 18  1  0
 12  7  1  0
  1 25  1  0
  1 26  1  0
  8 27  1  0
 10 28  1  0
 11 29  1  0
 14 30  1  0
 14 31  1  0
 19 32  1  0
 20 33  1  0
 23 34  1  0
 24 35  1  0
M  END
$$$$
confid_2
     RDKit          3D

 35 37  0  0  0  0  0  0  0  0999 V2000
   24.5700   26.8800   35.5900 N   0  0  0  0  0  0  0  0  0  0  0  0
   25.5000   26.4000   34.6900 C   0  0  0  0  0  0  0  0  0  0  0  0
   25.1700   25.5200   33.9100 O   0  0  0  0  0  0  0  0  0  0  0  0
   26.8400   27.0200   34.7400 C   0  0  0  0  0  0  0  0  0  0  0  0
   27.3800   27.2800   35.9400 N   0  0  0  0  0  0  0  0  0  0  0  0
   28.6200   27.7400   36.0300 N   0  0  0  0  0  0  0  0  0  0  0  0
   29.3800   28.0000   34.9600 C   0  0  0  0  0  0  0  0  0  0  0  0
   30.6700   28.5000   35.1300 C   0  0  0  0  0  0  0  0  0  0  0  0
   31.5400   28.6100   34.0300 C   0  0  0  0  0  0  0  0  0  0  0  0
   31.0900   28.2200   32.7700 C   0  0  0  0  0  0  0  0  0  0  0  0
   29.8000   27.7000   32.6000 C   0  0  0  0  0  0  0  0  0  0  0  0
   28.9600   27.5500   33.7100 C   0  0  0  0  0  0  0  0  0  0  0  0
   27.6600   27.0300   33.5900 C   0  0  0  0  0  0  0  0  0  0  0  0
   27.1600   26.7400   32.3400 N   0  0  0  0  0  0  0  0  0  0  0  0
   33.1793   29.2094   34.2475 S   0  0  0  0  0  6  0  0  0  0  0  0
   33.2158   30.2033   35.3751 O   0  0  0  0  0  0  0  0  0  0  0  0
   33.6417   29.9050   32.9972 O   0  0  0  0  0  0  0  0  0  0  0  0
   34.2410   27.8540   34.6081 C   0  0  0  0  0  0  0  0  0  0  0  0
   34.8714   27.1560   33.5684 C   0  0  0  0  0  0  0  0  0  0  0  0
   35.6985   26.0654   33.8548 C   0  0  0  0  0  0  0  0  0  0  0  0
   35.8948   25.6633   35.1804 C   0  0  0  0  0  0  0  0  0  0  0  0
   36.9308   24.2940   35.5386 Cl  0  0  0  0  0  0  0  0  0  0  0  0
   35.2597   26.3520   36.2197 C   0  0  0  0  0  0  0  0  0  0  0  0
   34.4324   27.4428   35.9348 C   0  0  0  0  0  0  0  0  0  0  0  0
   23.6076   26.4746   35.6186 H   0  0  0  0  0  0  0  0  0  0  0  0
   24.7885   27.6687   36.2395 H   0  0  0  0  0  0  0  0  0  0  0  0
   31.0128   28.7776   36.1196 H   0  0  0  0  0  0  0  0  0  0  0  0
   31.7417   28.3056   31.9097 H   0  0  0  0  0  0  0  0  0  0  0  0
   29.5021   27.4220   31.5996 H   0  0  0  0  0  0  0  0  0  0  0  0
   26.1714   26.9663   32.0917 H   0  0  0  0  0  0  0  0  0  0  0  0
   27.7095   26.1828   31.6495 H   0  0  0  0  0  0  0  0  0  0  0  0
   34.7199   27.4522   32.5382 H   0  0  0  0  0  0  0  0  0  0  0  0
   36.1832   25.5327   33.0466 H   0  0  0  0  0  0  0  0  0  0  0  0
   35.4040   26.0416   37.2467 H   0  0  0  0  0  0  0  0  0  0  0  0
   33.9391   27.9623   36.7465 H   0  0  0  0  0  0  0  0  0  0  0  0
  1  2  1  0
  2  3  2  0
  2  4  1  0
  4  5  2  0
  5  6  1  0
  6  7  2  0
  7  8  1  0
  8  9  2  0
  9 10  1  0
 10 11  2  0
 11 12  1  0
 12 13  2  0
 13 14  1  0
  9 15  1  0
 15 16  2  0
 15 17  2  0
 15 18  1  0
 18 19  2  0
 19 20  1  0
 20 21  2  0
 21 22  1  0
 21 23  1  0
 23 24  2  0
 13  4  1  0
 24 18  1  0
 12  7  1  0
  1 25  1  0
  1 26  1  0
  8 27  1  0
 10 28  1  0
 11 29  1  0
 14 30  1  0
 14 31  1  0
 19 32  1  0
 20 33  1  0
 23 34  1  0
 24 35  1  0
M  END
$$$$
confid_3
     RDKit          3D

 35 37  0  0  0  0  0  0  0  0999 V2000
   24.5700   26.8800   35.5900 N   0  0  0  0  0  0  0  0  0  0  0  0
   25.5000   26.4000   34.6900 C   0  0  0  0  0  0  0  0  0  0  0  0
   25.1700   25.5200   33.9100 O   0  0  0  0  0  0  0  0  0  0  0  0
   26.8400   27.0200   34.7400 C   0  0  0  0  0  0  0  0  0  0  0  0
   27.3800   27.2800   35.9400 N   0  0  0  0  0  0  0  0  0  0  0  0
   28.6200   27.7400   36.0300 N   0  0  0  0  0  0  0  0  0  0  0  0
   29.3800   28.0000   34.9600 C   0  0  0  0  0  0  0  0  0  0  0  0
   30.6700   28.5000   35.1300 C   0  0  0  0  0  0  0  0  0  0  0  0
   31.5400   28.6100   34.0300 C   0  0  0  0  0  0  0  0  0  0  0  0
   31.0900   28.2200   32.7700 C   0  0  0  0  0  0  0  0  0  0  0  0
   29.8000   27.7000   32.6000 C   0  0  0  0  0  0  0  0  0  0  0  0
   28.9600   27.5500   33.7100 C   0  0  0  0  0  0  0  0  0  0  0  0
   27.6600   27.0300   33.5900 C   0  0  0  0  0  0  0  0  0  0  0  0
   27.1600   26.7400   32.3400 N   0  0  0  0  0  0  0  0  0  0  0  0
   33.1560   29.2733   34.2358 S   0  0  0  0  0  6  0  0  0  0  0  0
   33.6806   28.9283   35.6020 O   0  0  0  0  0  0  0  0  0  0  0  0
   34.0876   28.6811   33.2150 O   0  0  0  0  0  0  0  0  0  0  0  0
   33.0868   31.0204   34.0430 C   0  0  0  0  0  0  0  0  0  0  0  0
   33.2483   31.5967   32.7751 C   0  0  0  0  0  0  0  0  0  0  0  0
   33.1723   32.9843   32.6194 C   0  0  0  0  0  0  0  0  0  0  0  0
   32.9285   33.8020   33.7282 C   0  0  0  0  0  0  0  0  0  0  0  0
   32.8313   35.5423   33.5316 Cl  0  0  0  0  0  0  0  0  0  0  0  0
   32.7578   33.2294   34.9933 C   0  0  0  0  0  0  0  0  0  0  0  0
   32.8336   31.8420   35.1506 C   0  0  0  0  0  0  0  0  0  0  0  0
   24.7884   27.6687   36.2395 H   0  0  0  0  0  0  0  0  0  0  0  0
   23.6076   26.4746   35.6186 H   0  0  0  0  0  0  0  0  0  0  0  0
   31.0063   28.7954   36.1167 H   0  0  0  0  0  0  0  0  0  0  0  0
   31.7347   28.3246   31.9065 H   0  0  0  0  0  0  0  0  0  0  0  0
   29.5003   27.4266   31.5989 H   0  0  0  0  0  0  0  0  0  0  0  0
   27.7098   26.1836   31.6492 H   0  0  0  0  0  0  0  0  0  0  0  0
   26.1713   26.9660   32.0917 H   0  0  0  0  0  0  0  0  0  0  0  0
   33.4283   30.9735   31.9084 H   0  0  0  0  0  0  0  0  0  0  0  0
   33.2998   33.4219   31.6375 H   0  0  0  0  0  0  0  0  0  0  0  0
   32.5636   33.8572   35.8536 H   0  0  0  0  0  0  0  0  0  0  0  0
   32.6908   31.4096   36.1328 H   0  0  0  0  0  0  0  0  0  0  0  0
  1  2  1  0
  2  3  2  0
  2  4  1  0
  4  5  2  0
  5  6  1  0
  6  7  2  0
  7  8  1  0
  8  9  2  0
  9 10  1  0
 10 11  2  0
 11 12  1  0
 12 13  2  0
 13 14  1  0
  9 15  1  0
 15 16  2  0
 15 17  2  0
 15 18  1  0
 18 19  2  0
 19 20  1  0
 20 21  2  0
 21 22  1  0
 21 23  1  0
 23 24  2  0
 13  4  1  0
 24 18  1  0
 12  7  1  0
  1 25  1  0
  1 26  1  0
  8 27  1  0
 10 28  1  0
 11 29  1  0
 14 30  1  0
 14 31  1  0
 19 32  1  0
 20 33  1  0
 23 34  1  0
 24 35  1  0
M  END
$$$$
confid_4
     RDKit          3D

 35 37  0  0  0  0  0  0  0  0999 V2000
   24.5700   26.8800   35.5900 N   0  0  0  0  0  0  0  0  0  0  0  0
   25.5000   26.4000   34.6900 C   0  0  0  0  0  0  0  0  0  0  0  0
   25.1700   25.5200   33.9100 O   0  0  0  0  0  0  0  0  0  0  0  0
   26.8400   27.0200   34.7400 C   0  0  0  0  0  0  0  0  0  0  0  0
   27.3800   27.2800   35.9400 N   0  0  0  0  0  0  0  0  0  0  0  0
   28.6200   27.7400   36.0300 N   0  0  0  0  0  0  0  0  0  0  0  0
   29.3800   28.0000   34.9600 C   0  0  0  0  0  0  0  0  0  0  0  0
   30.6700   28.5000   35.1300 C   0  0  0  0  0  0  0  0  0  0  0  0
   31.5400   28.6100   34.0300 C   0  0  0  0  0  0  0  0  0  0  0  0
   31.0900   28.2200   32.7700 C   0  0  0  0  0  0  0  0  0  0  0  0
   29.8000   27.7000   32.6000 C   0  0  0  0  0  0  0  0  0  0  0  0
   28.9600   27.5500   33.7100 C   0  0  0  0  0  0  0  0  0  0  0  0
   27.6600   27.0300   33.5900 C   0  0  0  0  0  0  0  0  0  0  0  0
   27.1600   26.7400   32.3400 N   0  0  0  0  0  0  0  0  0  0  0  0
   33.1560   29.2733   34.2358 S   0  0  0  0  0  6  0  0  0  0  0  0
   33.6801   28.9298   35.6025 O   0  0  0  0  0  0  0  0  0  0  0  0
   34.0879   28.6799   33.2159 O   0  0  0  0  0  0  0  0  0  0  0  0
   33.0871   31.0202   34.0411 C   0  0  0  0  0  0  0  0  0  0  0  0
   32.8329   31.8429   35.1476 C   0  0  0  0  0  0  0  0  0  0  0  0
   32.7574   33.2302   34.9888 C   0  0  0  0  0  0  0  0  0  0  0  0
   32.9294   33.8015   33.7233 C   0  0  0  0  0  0  0  0  0  0  0  0
   32.8325   35.5416   33.5247 Cl  0  0  0  0  0  0  0  0  0  0  0  0
   33.1741   32.9826   32.6155 C   0  0  0  0  0  0  0  0  0  0  0  0
   33.2499   31.5952   32.7727 C   0  0  0  0  0  0  0  0  0  0  0  0
   23.6076   26.4746   35.6186 H   0  0  0  0  0  0  0  0  0  0  0  0
   24.7884   27.6687   36.2395 H   0  0  0  0  0  0  0  0  0  0  0  0
   31.0063   28.7954   36.1167 H   0  0  0  0  0  0  0  0  0  0  0  0
   31.7347   28.3246   31.9065 H   0  0  0  0  0  0  0  0  0  0  0  0
   29.5003   27.4266   31.5989 H   0  0  0  0  0  0  0  0  0  0  0  0
   26.1713   26.9660   32.0917 H   0  0  0  0  0  0  0  0  0  0  0  0
   27.7098   26.1836   31.6492 H   0  0  0  0  0  0  0  0  0  0  0  0
   32.6892   31.4116   36.1300 H   0  0  0  0  0  0  0  0  0  0  0  0
   32.5625   33.8589   35.8483 H   0  0  0  0  0  0  0  0  0  0  0  0
   33.3026   33.4192   31.6333 H   0  0  0  0  0  0  0  0  0  0  0  0
   33.4306   30.9711   31.9068 H   0  0  0  0  0  0  0  0  0  0  0  0
  1  2  1  0
  2  3  2  0
  2  4  1  0
  4  5  2  0
  5  6  1  0
  6  7  2  0
  7  8  1  0
  8  9  2  0
  9 10  1  0
 10 11  2  0
 11 12  1  0
 12 13  2  0
 13 14  1  0
  9 15  1  0
 15 16  2  0
 15 17  2  0
 15 18  1  0
 18 19  2  0
 19 20  1  0
 20 21  2  0
 21 22  1  0
 21 23  1  0
 23 24  2  0
 13  4  1  0
 24 18  1  0
 12  7  1  0
  1 25  1  0
  1 26  1  0
  8 27  1  0
 10 28  1  0
 11 29  1  0
 14 30  1  0
 14 31  1  0
 19 32  1  0
 20 33  1  0
 23 34  1  0
 24 35  1  0
M  END
$$$$
confid_5
     RDKit          3D

 35 37  0  0  0  0  0  0  0  0999 V2000
   24.5700   26.8800   35.5900 N   0  0  0  0  0  0  0  0  0  0  0  0
   25.5000   26.4000   34.6900 C   0  0  0  0  0  0  0  0  0  0  0  0
   25.1700   25.5200   33.9100 O   0  0  0  0  0  0  0  0  0  0  0  0
   26.8400   27.0200   34.7400 C   0  0  0  0  0  0  0  0  0  0  0  0
   27.3800   27.2800   35.9400 N   0  0  0  0  0  0  0  0  0  0  0  0
   28.6200   27.7400   36.0300 N   0  0  0  0  0  0  0  0  0  0  0  0
   29.3800   28.0000   34.9600 C   0  0  0  0  0  0  0  0  0  0  0  0
   30.6700   28.5000   35.1300 C   0  0  0  0  0  0  0  0  0  0  0  0
   31.5400   28.6100   34.0300 C   0  0  0  0  0  0  0  0  0  0  0  0
   31.0900   28.2200   32.7700 C   0  0  0  0  0  0  0  0  0  0  0  0
   29.8000   27.7000   32.6000 C   0  0  0  0  0  0  0  0  0  0  0  0
   28.9600   27.5500   33.7100 C   0  0  0  0  0  0  0  0  0  0  0  0
   27.6600   27.0300   33.5900 C   0  0  0  0  0  0  0  0  0  0  0  0
   27.1600   26.7400   32.3400 N   0  0  0  0  0  0  0  0  0  0  0  0
   33.1803   29.2062   34.2480 S   0  0  0  0  0  6  0  0  0  0  0  0
   33.2179   30.2015   35.3744 O   0  0  0  0  0  0  0  0  0  0  0  0
   33.6452   29.8992   32.9973 O   0  0  0  0  0  0  0  0  0  0  0  0
   34.2389   27.8491   34.6112 C   0  0  0  0  0  0  0  0  0  0  0  0
   34.4287   27.4393   35.9386 C   0  0  0  0  0  0  0  0  0  0  0  0
   35.2535   26.3471   36.2255 C   0  0  0  0  0  0  0  0  0  0  0  0
   35.8877   25.6557   35.1876 C   0  0  0  0  0  0  0  0  0  0  0  0
   36.9205   24.2846   35.5482 Cl  0  0  0  0  0  0  0  0  0  0  0  0
   35.6931   26.0564   33.8612 C   0  0  0  0  0  0  0  0  0  0  0  0
   34.8685   27.1483   33.5728 C   0  0  0  0  0  0  0  0  0  0  0  0
   24.7885   27.6687   36.2396 H   0  0  0  0  0  0  0  0  0  0  0  0
   23.6076   26.4745   35.6186 H   0  0  0  0  0  0  0  0  0  0  0  0
   31.0129   28.7772   36.1197 H   0  0  0  0  0  0  0  0  0  0  0  0
   31.7449   28.2964   31.9113 H   0  0  0  0  0  0  0  0  0  0  0  0
   29.5085   27.3791   31.6091 H   0  0  0  0  0  0  0  0  0  0  0  0
   26.7459   25.8071   32.1266 H   0  0  0  0  0  0  0  0  0  0  0  0
   27.2459   27.4245   31.5560 H   0  0  0  0  0  0  0  0  0  0  0  0
   33.9361   27.9610   36.7492 H   0  0  0  0  0  0  0  0  0  0  0  0
   35.3965   26.0379   37.2530 H   0  0  0  0  0  0  0  0  0  0  0  0
   36.1771   25.5214   33.0541 H   0  0  0  0  0  0  0  0  0  0  0  0
   34.7182   27.4434   32.5421 H   0  0  0  0  0  0  0  0  0  0  0  0
  1  2  1  0
  2  3  2  0
  2  4  1  0
  4  5  2  0
  5  6  1  0
  6  7  2  0
  7  8  1  0
  8  9  2  0
  9 10  1  0
 10 11  2  0
 11 12  1  0
 12 13  2  0
 13 14  1  0
  9 15  1  0
 15 16  2  0
 15 17  2  0
 15 18  1  0
 18 19  2  0
 19 20  1  0
 20 21  2  0
 21 22  1  0
 21 23  1  0
 23 24  2  0
 13  4  1  0
 24 18  1  0
 12  7  1  0
  1 25  1  0
  1 26  1  0
  8 27  1  0
 10 28  1  0
 11 29  1  0
 14 30  1  0
 14 31  1  0
 19 32  1  0
 20 33  1  0
 23 34  1  0
 24 35  1  0
M  END
$$$$
confid_6
     RDKit          3D

 35 37  0  0  0  0  0  0  0  0999 V2000
   24.5700   26.8800   35.5900 N   0  0  0  0  0  0  0  0  0  0  0  0
   25.5000   26.4000   34.6900 C   0  0  0  0  0  0  0  0  0  0  0  0
   25.1700   25.5200   33.9100 O   0  0  0  0  0  0  0  0  0  0  0  0
   26.8400   27.0200   34.7400 C   0  0  0  0  0  0  0  0  0  0  0  0
   27.3800   27.2800   35.9400 N   0  0  0  0  0  0  0  0  0  0  0  0
   28.6200   27.7400   36.0300 N   0  0  0  0  0  0  0  0  0  0  0  0
   29.3800   28.0000   34.9600 C   0  0  0  0  0  0  0  0  0  0  0  0
   30.6700   28.5000   35.1300 C   0  0  0  0  0  0  0  0  0  0  0  0
   31.5400   28.6100   34.0300 C   0  0  0  0  0  0  0  0  0  0  0  0
   31.0900   28.2200   32.7700 C   0  0  0  0  0  0  0  0  0  0  0  0
   29.8000   27.7000   32.6000 C   0  0  0  0  0  0  0  0  0  0  0  0
   28.9600   27.5500   33.7100 C   0  0  0  0  0  0  0  0  0  0  0  0
   27.6600   27.0300   33.5900 C   0  0  0  0  0  0  0  0  0  0  0  0
   27.1600   26.7400   32.3400 N   0  0  0  0  0  0  0  0  0  0  0  0
   33.1803   29.2062   34.2481 S   0  0  0  0  0  6  0  0  0  0  0  0
   33.6460   29.8976   32.9968 O   0  0  0  0  0  0  0  0  0  0  0  0
   33.2174   30.2028   35.3733 O   0  0  0  0  0  0  0  0  0  0  0  0
   34.2385   27.8494   34.6135 C   0  0  0  0  0  0  0  0  0  0  0  0
   34.4280   27.4415   35.9415 C   0  0  0  0  0  0  0  0  0  0  0  0
   35.2525   26.3496   36.2301 C   0  0  0  0  0  0  0  0  0  0  0  0
   35.8866   25.6564   35.1933 C   0  0  0  0  0  0  0  0  0  0  0  0
   36.9191   24.2856   35.5561 Cl  0  0  0  0  0  0  0  0  0  0  0  0
   35.6923   26.0552   33.8664 C   0  0  0  0  0  0  0  0  0  0  0  0
   34.8681   27.1469   33.5762 C   0  0  0  0  0  0  0  0  0  0  0  0
   24.7885   27.6687   36.2396 H   0  0  0  0  0  0  0  0  0  0  0  0
   23.6076   26.4745   35.6186 H   0  0  0  0  0  0  0  0  0  0  0  0
   31.0129   28.7772   36.1197 H   0  0  0  0  0  0  0  0  0  0  0  0
   31.7449   28.2964   31.9113 H   0  0  0  0  0  0  0  0  0  0  0  0
   29.5085   27.3791   31.6091 H   0  0  0  0  0  0  0  0  0  0  0  0
   27.2459   27.4245   31.5560 H   0  0  0  0  0  0  0  0  0  0  0  0
   26.7459   25.8071   32.1266 H   0  0  0  0  0  0  0  0  0  0  0  0
   33.9354   27.9645   36.7513 H   0  0  0  0  0  0  0  0  0  0  0  0
   35.3952   26.0418   37.2581 H   0  0  0  0  0  0  0  0  0  0  0  0
   36.1763   25.5189   33.0601 H   0  0  0  0  0  0  0  0  0  0  0  0
   34.7180   27.4405   32.5451 H   0  0  0  0  0  0  0  0  0  0  0  0
  1  2  1  0
  2  3  2  0
  2  4  1  0
  4  5  2  0
  5  6  1  0
  6  7  2  0
  7  8  1  0
  8  9  2  0
  9 10  1  0
 10 11  2  0
 11 12  1  0
 12 13  2  0
 13 14  1  0
  9 15  1  0
 15 16  2  0
 15 17  2  0
 15 18  1  0
 18 19  2  0
 19 20  1  0
 20 21  2  0
 21 22  1  0
 21 23  1  0
 23 24  2  0
 13  4  1  0
 24 18  1  0
 12  7  1  0
  1 25  1  0
  1 26  1  0
  8 27  1  0
 10 28  1  0
 11 29  1  0
 14 30  1  0
 14 31  1  0
 19 32  1  0
 20 33  1  0
 23 34  1  0
 24 35  1  0
M  END
$$$$
confid_7
     RDKit          3D

 35 37  0  0  0  0  0  0  0  0999 V2000
   24.5700   26.8800   35.5900 N   0  0  0  0  0  0  0  0  0  0  0  0
   25.5000   26.4000   34.6900 C   0  0  0  0  0  0  0  0  0  0  0  0
   25.1700   25.5200   33.9100 O   0  0  0  0  0  0  0  0  0  0  0  0
   26.8400   27.0200   34.7400 C   0  0  0  0  0  0  0  0  0  0  0  0
   27.3800   27.2800   35.9400 N   0  0  0  0  0  0  0  0  0  0  0  0
   28.6200   27.7400   36.0300 N   0  0  0  0  0  0  0  0  0  0  0  0
   29.3800   28.0000   34.9600 C   0  0  0  0  0  0  0  0  0  0  0  0
   30.6700   28.5000   35.1300 C   0  0  0  0  0  0  0  0  0  0  0  0
   31.5400   28.6100   34.0300 C   0  0  0  0  0  0  0  0  0  0  0  0
   31.0900   28.2200   32.7700 C   0  0  0  0  0  0  0  0  0  0  0  0
   29.8000   27.7000   32.6000 C   0  0  0  0  0  0  0  0  0  0  0  0
   28.9600   27.5500   33.7100 C   0  0  0  0  0  0  0  0  0  0  0  0
   27.6600   27.0300   33.5900 C   0  0  0  0  0  0  0  0  0  0  0  0
   27.1600   26.7400   32.3400 N   0  0  0  0  0  0  0  0  0  0  0  0
   33.1572   29.2701   34.2363 S   0  0  0  0  0  6  0  0  0  0  0  0
   34.0886   28.6743   33.2175 O   0  0  0  0  0  0  0  0  0  0  0  0
   33.6798   28.9265   35.6036 O   0  0  0  0  0  0  0  0  0  0  0  0
   33.0919   31.0171   34.0405 C   0  0  0  0  0  0  0  0  0  0  0  0
   32.8386   31.8410   35.1462 C   0  0  0  0  0  0  0  0  0  0  0  0
   32.7659   33.2283   34.9865 C   0  0  0  0  0  0  0  0  0  0  0  0
   32.9400   33.7985   33.7208 C   0  0  0  0  0  0  0  0  0  0  0  0
   32.8467   35.5386   33.5211 Cl  0  0  0  0  0  0  0  0  0  0  0  0
   33.1838   32.9784   32.6137 C   0  0  0  0  0  0  0  0  0  0  0  0
   33.2568   31.5909   32.7719 C   0  0  0  0  0  0  0  0  0  0  0  0
   23.6076   26.4745   35.6186 H   0  0  0  0  0  0  0  0  0  0  0  0
   24.7885   27.6687   36.2396 H   0  0  0  0  0  0  0  0  0  0  0  0
   31.0064   28.7950   36.1167 H   0  0  0  0  0  0  0  0  0  0  0  0
   31.7380   28.3153   31.9079 H   0  0  0  0  0  0  0  0  0  0  0  0
   29.5068   27.3836   31.6081 H   0  0  0  0  0  0  0  0  0  0  0  0
   27.2446   27.4251   31.5564 H   0  0  0  0  0  0  0  0  0  0  0  0
   26.7464   25.8069   32.1265 H   0  0  0  0  0  0  0  0  0  0  0  0
   32.6932   31.4106   36.1289 H   0  0  0  0  0  0  0  0  0  0  0  0
   32.5716   33.8580   35.8455 H   0  0  0  0  0  0  0  0  0  0  0  0
   33.3139   33.4141   31.6313 H   0  0  0  0  0  0  0  0  0  0  0  0
   33.4370   30.9659   31.9065 H   0  0  0  0  0  0  0  0  0  0  0  0
  1  2  1  0
  2  3  2  0
  2  4  1  0
  4  5  2  0
  5  6  1  0
  6  7  2  0
  7  8  1  0
  8  9  2  0
  9 10  1  0
 10 11  2  0
 11 12  1  0
 12 13  2  0
 13 14  1  0
  9 15  1  0
 15 16  2  0
 15 17  2  0
 15 18  1  0
 18 19  2  0
 19 20  1  0
 20 21  2  0
 21 22  1  0
 21 23  1  0
 23 24  2  0
 13  4  1  0
 24 18  1  0
 12  7  1  0
  1 25  1  0
  1 26  1  0
  8 27  1  0
 10 28  1  0
 11 29  1  0
 14 30  1  0
 14 31  1  0
 19 32  1  0
 20 33  1  0
 23 34  1  0
 24 35  1  0
M  END
$$$$
