confid_0
     RDKit          3D

 41 44  0  0  0  0  0  0  0  0999 V2000
   24.5500   26.3900   36.2500 N   0  0  0  0  0  0  0  0  0  0  0  0
   25.6000   26.1300   35.4000 C   0  0  0  0  0  0  0  0  0  0  0  0
   25.4300   25.4300   34.4200 O   0  0  0  0  0  0  0  0  0  0  0  0
   26.9800   26.6300   35.7100 C   0  0  0  0  0  0  0  0  0  0  0  0
   27.3200   26.8200   36.9800 N   0  0  0  0  0  0  0  0  0  0  0  0
   28.4700   27.4000   37.3100 N   0  0  0  0  0  0  0  0  0  0  0  0
   29.4000   27.6300   36.3700 C   0  0  0  0  0  0  0  0  0  0  0  0
   30.6600   28.0500   36.8000 C   0  0  0  0  0  0  0  0  0  0  0  0
   31.5700   28.3600   35.7800 C   0  0  0  0  0  0  0  0  0  0  0  0
   31.3700   28.1000   34.4300 C   0  0  0  0  0  0  0  0  0  0  0  0
   30.1200   27.5900   34.0500 C   0  0  0  0  0  0  0  0  0  0  0  0
   29.1500   27.3400   35.0300 C   0  0  0  0  0  0  0  0  0  0  0  0
   27.8800   26.8900   34.6600 C   0  0  0  0  0  0  0  0  0  0  0  0
   27.4800   26.6100   33.3700 N   0  0  0  0  0  0  0  0  0  0  0  0
   23.2289   25.8204   36.1369 C   0  0  0  0  0  0  0  0  0  0  0  0
   22.9638   24.8577   35.2147 N   0  0  0  0  0  0  0  0  0  0  0  0
   21.7364   24.2958   35.0837 C   0  0  0  0  0  0  0  0  0  0  0  0
   20.6721   24.6955   35.9091 C   0  0  0  0  0  0  0  0  0  0  0  0
   19.3323   24.0261   35.7214 C   0  0  0  0  0  0  0  0  0  0  0  0
   18.2285   25.0384   35.5847 C   0  0  0  0  0  0  0  0  0  0  0  0
   17.6924   25.1957   34.4982 O   0  0  0  0  0  0  0  0  0  0  0  0
   17.7733   25.8771   36.7464 C   0  0  0  0  0  0  0  0  0  0  0  0
   18.6330   25.6826   37.9955 C   0  0  0  0  0  0  0  0  0  0  0  0
   19.9553   26.1760   37.7960 O   0  0  0  0  0  0  0  0  0  0  0  0
   20.9215   25.6865   36.8973 C   0  0  0  0  0  0  0  0  0  0  0  0
   22.2033   26.2440   36.9941 C   0  0  0  0  0  0  0  0  0  0  0  0
   22.4441   27.2000   37.9281 F   0  0  0  0  0  0  0  0  0  0  0  0
   24.7207   27.0673   37.0274 H   0  0  0  0  0  0  0  0  0  0  0  0
   30.8875   28.2367   37.8426 H   0  0  0  0  0  0  0  0  0  0  0  0
   32.5281   28.7695   36.0734 H   0  0  0  0  0  0  0  0  0  0  0  0
   32.1340   28.3195   33.6952 H   0  0  0  0  0  0  0  0  0  0  0  0
   29.9373   27.4178   32.9983 H   0  0  0  0  0  0  0  0  0  0  0  0
   26.5957   27.0142   32.9876 H   0  0  0  0  0  0  0  0  0  0  0  0
   28.1243   26.1388   32.6977 H   0  0  0  0  0  0  0  0  0  0  0  0
   21.5934   23.5333   34.3288 H   0  0  0  0  0  0  0  0  0  0  0  0
   19.3378   23.3857   34.8113 H   0  0  0  0  0  0  0  0  0  0  0  0
   19.1318   23.3375   36.5674 H   0  0  0  0  0  0  0  0  0  0  0  0
   17.8011   26.9492   36.4541 H   0  0  0  0  0  0  0  0  0  0  0  0
   16.7215   25.6110   36.9859 H   0  0  0  0  0  0  0  0  0  0  0  0
   18.1742   26.2645   38.8225 H   0  0  0  0  0  0  0  0  0  0  0  0
   18.6555   24.6248   38.3300 H   0  0  0  0  0  0  0  0  0  0  0  0
  1  2  1  0
  2  3  2  0
  2  4  1  0
  4  5  2  0
  5  6  1  0
  6  7  2  0
  7  8  1  0
  8  9  2  0
  9 10  1  0
 10 11  2  0
 11 12  1  0
 12 13  2  0
 13 14  1  0
  1 15  1  0
 15 16  2  0
 16 17  1  0
 17 18  2  0
 18 19  1  0
 19 20  1  0
 20 21  2  0
 20 22  1  0
 22 23  1  0
 23 24  1  0
 24 25  1  0
 25 26  2  0
 26 27  1  0
 13  4  1  0
 26 15  1  0
 12  7  1  0
 25 18  1  0
  1 28  1  0
  8 29  1  0
  9 30  1  0
 10 31  1  0
 11 32  1  0
 14 33  1  0
 14 34  1  0
 17 35  1  0
 19 36  1  0
 19 37  1  0
 22 38  1  0
 22 39  1  0
 23 40  1  0
 23 41  1  0
M  END
$$$$
confid_1
     RDKit          3D

 41 44  0  0  0  0  0  0  0  0999 V2000
   24.5500   26.3900   36.2500 N   0  0  0  0  0  0  0  0  0  0  0  0
   25.6000   26.1300   35.4000 C   0  0  0  0  0  0  0  0  0  0  0  0
   25.4300   25.4300   34.4200 O   0  0  0  0  0  0  0  0  0  0  0  0
   26.9800   26.6300   35.7100 C   0  0  0  0  0  0  0  0  0  0  0  0
   27.3200   26.8200   36.9800 N   0  0  0  0  0  0  0  0  0  0  0  0
   28.4700   27.4000   37.3100 N   0  0  0  0  0  0  0  0  0  0  0  0
   29.4000   27.6300   36.3700 C   0  0  0  0  0  0  0  0  0  0  0  0
   30.6600   28.0500   36.8000 C   0  0  0  0  0  0  0  0  0  0  0  0
   31.5700   28.3600   35.7800 C   0  0  0  0  0  0  0  0  0  0  0  0
   31.3700   28.1000   34.4300 C   0  0  0  0  0  0  0  0  0  0  0  0
   30.1200   27.5900   34.0500 C   0  0  0  0  0  0  0  0  0  0  0  0
   29.1500   27.3400   35.0300 C   0  0  0  0  0  0  0  0  0  0  0  0
   27.8800   26.8900   34.6600 C   0  0  0  0  0  0  0  0  0  0  0  0
   27.4800   26.6100   33.3700 N   0  0  0  0  0  0  0  0  0  0  0  0
   23.2263   25.8276   36.1322 C   0  0  0  0  0  0  0  0  0  0  0  0
   22.9523   24.8819   35.1919 N   0  0  0  0  0  0  0  0  0  0  0  0
   21.7197   24.3295   35.0534 C   0  0  0  0  0  0  0  0  0  0  0  0
   20.6700   24.7141   35.9002 C   0  0  0  0  0  0  0  0  0  0  0  0
   19.2800   24.1875   35.6518 C   0  0  0  0  0  0  0  0  0  0  0  0
   18.7139   23.5673   36.8926 C   0  0  0  0  0  0  0  0  0  0  0  0
   18.7865   22.3591   37.0607 O   0  0  0  0  0  0  0  0  0  0  0  0
   18.1472   24.4432   37.9687 C   0  0  0  0  0  0  0  0  0  0  0  0
   19.2617   25.2033   38.6824 C   0  0  0  0  0  0  0  0  0  0  0  0
   19.9409   26.0965   37.7996 O   0  0  0  0  0  0  0  0  0  0  0  0
   20.9292   25.6763   36.9001 C   0  0  0  0  0  0  0  0  0  0  0  0
   22.2046   26.2431   37.0004 C   0  0  0  0  0  0  0  0  0  0  0  0
   22.4471   27.1791   37.9534 F   0  0  0  0  0  0  0  0  0  0  0  0
   24.7225   27.0616   37.0319 H   0  0  0  0  0  0  0  0  0  0  0  0
   30.8875   28.2367   37.8426 H   0  0  0  0  0  0  0  0  0  0  0  0
   32.5281   28.7695   36.0734 H   0  0  0  0  0  0  0  0  0  0  0  0
   32.1340   28.3195   33.6952 H   0  0  0  0  0  0  0  0  0  0  0  0
   29.9373   27.4178   32.9983 H   0  0  0  0  0  0  0  0  0  0  0  0
   26.5957   27.0142   32.9876 H   0  0  0  0  0  0  0  0  0  0  0  0
   28.1243   26.1388   32.6977 H   0  0  0  0  0  0  0  0  0  0  0  0
   21.5575   23.6004   34.2701 H   0  0  0  0  0  0  0  0  0  0  0  0
   18.6300   25.0266   35.3232 H   0  0  0  0  0  0  0  0  0  0  0  0
   19.2754   23.4344   34.8331 H   0  0  0  0  0  0  0  0  0  0  0  0
   17.5964   23.8236   38.7097 H   0  0  0  0  0  0  0  0  0  0  0  0
   17.4270   25.1638   37.5248 H   0  0  0  0  0  0  0  0  0  0  0  0
   18.8093   25.8006   39.5018 H   0  0  0  0  0  0  0  0  0  0  0  0
   19.9859   24.4945   39.1419 H   0  0  0  0  0  0  0  0  0  0  0  0
  1  2  1  0
  2  3  2  0
  2  4  1  0
  4  5  2  0
  5  6  1  0
  6  7  2  0
  7  8  1  0
  8  9  2  0
  9 10  1  0
 10 11  2  0
 11 12  1  0
 12 13  2  0
 13 14  1  0
  1 15  1  0
 15 16  2  0
 16 17  1  0
 17 18  2  0
 18 19  1  0
 19 20  1  0
 20 21  2  0
 20 22  1  0
 22 23  1  0
 23 24  1  0
 24 25  1  0
 25 26  2  0
 26 27  1  0
 13  4  1  0
 26 15  1  0
 12  7  1  0
 25 18  1  0
  1 28  1  0
  8 29  1  0
  9 30  1  0
 10 31  1  0
 11 32  1  0
 14 33  1  0
 14 34  1  0
 17 35  1  0
 19 36  1  0
 19 37  1  0
 22 38  1  0
 22 39  1  0
 23 40  1  0
 23 41  1  0
M  END
$$$$
confid_2
     RDKit          3D

 41 44  0  0  0  0  0  0  0  0999 V2000
   24.5500   26.3900   36.2500 N   0  0  0  0  0  0  0  0  0  0  0  0
   25.6000   26.1300   35.4000 C   0  0  0  0  0  0  0  0  0  0  0  0
   25.4300   25.4300   34.4200 O   0  0  0  0  0  0  0  0  0  0  0  0
   26.9800   26.6300   35.7100 C   0  0  0  0  0  0  0  0  0  0  0  0
   27.3200   26.8200   36.9800 N   0  0  0  0  0  0  0  0  0  0  0  0
   28.4700   27.4000   37.3100 N   0  0  0  0  0  0  0  0  0  0  0  0
   29.4000   27.6300   36.3700 C   0  0  0  0  0  0  0  0  0  0  0  0
   30.6600   28.0500   36.8000 C   0  0  0  0  0  0  0  0  0  0  0  0
   31.5700   28.3600   35.7800 C   0  0  0  0  0  0  0  0  0  0  0  0
   31.3700   28.1000   34.4300 C   0  0  0  0  0  0  0  0  0  0  0  0
   30.1200   27.5900   34.0500 C   0  0  0  0  0  0  0  0  0  0  0  0
   29.1500   27.3400   35.0300 C   0  0  0  0  0  0  0  0  0  0  0  0
   27.8800   26.8900   34.6600 C   0  0  0  0  0  0  0  0  0  0  0  0
   27.4800   26.6100   33.3700 N   0  0  0  0  0  0  0  0  0  0  0  0
   23.2274   25.8247   36.1340 C   0  0  0  0  0  0  0  0  0  0  0  0
   22.9574   24.8696   35.2021 N   0  0  0  0  0  0  0  0  0  0  0  0
   21.7290   24.3056   35.0735 C   0  0  0  0  0  0  0  0  0  0  0  0
   20.6745   24.7022   35.9087 C   0  0  0  0  0  0  0  0  0  0  0  0
   19.3548   23.9779   35.8388 C   0  0  0  0  0  0  0  0  0  0  0  0
   18.2255   24.9426   35.6417 C   0  0  0  0  0  0  0  0  0  0  0  0
   17.7931   25.1574   34.5192 O   0  0  0  0  0  0  0  0  0  0  0  0
   17.6951   25.7143   36.8120 C   0  0  0  0  0  0  0  0  0  0  0  0
   18.7060   26.7652   37.2626 C   0  0  0  0  0  0  0  0  0  0  0  0
   19.9148   26.1678   37.7322 O   0  0  0  0  0  0  0  0  0  0  0  0
   20.9197   25.7023   36.8744 C   0  0  0  0  0  0  0  0  0  0  0  0
   22.2032   26.2458   36.9965 C   0  0  0  0  0  0  0  0  0  0  0  0
   22.4397   27.1974   37.9355 F   0  0  0  0  0  0  0  0  0  0  0  0
   24.7215   27.0641   37.0300 H   0  0  0  0  0  0  0  0  0  0  0  0
   30.8875   28.2367   37.8426 H   0  0  0  0  0  0  0  0  0  0  0  0
   32.5281   28.7695   36.0734 H   0  0  0  0  0  0  0  0  0  0  0  0
   32.1340   28.3195   33.6952 H   0  0  0  0  0  0  0  0  0  0  0  0
   29.9373   27.4178   32.9983 H   0  0  0  0  0  0  0  0  0  0  0  0
   26.5957   27.0142   32.9876 H   0  0  0  0  0  0  0  0  0  0  0  0
   28.1243   26.1388   32.6977 H   0  0  0  0  0  0  0  0  0  0  0  0
   21.5822   23.5344   34.3283 H   0  0  0  0  0  0  0  0  0  0  0  0
   19.2033   23.4128   36.7835 H   0  0  0  0  0  0  0  0  0  0  0  0
   19.3473   23.2342   35.0117 H   0  0  0  0  0  0  0  0  0  0  0  0
   17.4776   25.0195   37.6515 H   0  0  0  0  0  0  0  0  0  0  0  0
   16.7447   26.2194   36.5325 H   0  0  0  0  0  0  0  0  0  0  0  0
   18.2585   27.3470   38.0957 H   0  0  0  0  0  0  0  0  0  0  0  0
   18.9262   27.4757   36.4351 H   0  0  0  0  0  0  0  0  0  0  0  0
  1  2  1  0
  2  3  2  0
  2  4  1  0
  4  5  2  0
  5  6  1  0
  6  7  2  0
  7  8  1  0
  8  9  2  0
  9 10  1  0
 10 11  2  0
 11 12  1  0
 12 13  2  0
 13 14  1  0
  1 15  1  0
 15 16  2  0
 16 17  1  0
 17 18  2  0
 18 19  1  0
 19 20  1  0
 20 21  2  0
 20 22  1  0
 22 23  1  0
 23 24  1  0
 24 25  1  0
 25 26  2  0
 26 27  1  0
 13  4  1  0
 26 15  1  0
 12  7  1  0
 25 18  1  0
  1 28  1  0
  8 29  1  0
  9 30  1  0
 10 31  1  0
 11 32  1  0
 14 33  1  0
 14 34  1  0
 17 35  1  0
 19 36  1  0
 19 37  1  0
 22 38  1  0
 22 39  1  0
 23 40  1  0
 23 41  1  0
M  END
$$$$
confid_3
     RDKit          3D

 41 44  0  0  0  0  0  0  0  0999 V2000
   24.5500   26.3900   36.2500 N   0  0  0  0  0  0  0  0  0  0  0  0
   25.6000   26.1300   35.4000 C   0  0  0  0  0  0  0  0  0  0  0  0
   25.4300   25.4300   34.4200 O   0  0  0  0  0  0  0  0  0  0  0  0
   26.9800   26.6300   35.7100 C   0  0  0  0  0  0  0  0  0  0  0  0
   27.3200   26.8200   36.9800 N   0  0  0  0  0  0  0  0  0  0  0  0
   28.4700   27.4000   37.3100 N   0  0  0  0  0  0  0  0  0  0  0  0
   29.4000   27.6300   36.3700 C   0  0  0  0  0  0  0  0  0  0  0  0
   30.6600   28.0500   36.8000 C   0  0  0  0  0  0  0  0  0  0  0  0
   31.5700   28.3600   35.7800 C   0  0  0  0  0  0  0  0  0  0  0  0
   31.3700   28.1000   34.4300 C   0  0  0  0  0  0  0  0  0  0  0  0
   30.1200   27.5900   34.0500 C   0  0  0  0  0  0  0  0  0  0  0  0
   29.1500   27.3400   35.0300 C   0  0  0  0  0  0  0  0  0  0  0  0
   27.8800   26.8900   34.6600 C   0  0  0  0  0  0  0  0  0  0  0  0
   27.4800   26.6100   33.3700 N   0  0  0  0  0  0  0  0  0  0  0  0
   23.2275   25.8240   36.1346 C   0  0  0  0  0  0  0  0  0  0  0  0
   22.9576   24.8725   35.2023 N   0  0  0  0  0  0  0  0  0  0  0  0
   21.7299   24.3107   35.0722 C   0  0  0  0  0  0  0  0  0  0  0  0
   20.6730   24.6920   35.9156 C   0  0  0  0  0  0  0  0  0  0  0  0
   19.3275   24.0381   35.7147 C   0  0  0  0  0  0  0  0  0  0  0  0
   18.7811   23.5007   37.0088 C   0  0  0  0  0  0  0  0  0  0  0  0
   18.7353   22.2923   37.1827 O   0  0  0  0  0  0  0  0  0  0  0  0
   18.3016   24.4102   38.1057 C   0  0  0  0  0  0  0  0  0  0  0  0
   18.5605   25.8878   37.8111 C   0  0  0  0  0  0  0  0  0  0  0  0
   19.9563   26.1767   37.7992 O   0  0  0  0  0  0  0  0  0  0  0  0
   20.9192   25.6940   36.8932 C   0  0  0  0  0  0  0  0  0  0  0  0
   22.2040   26.2436   36.9964 C   0  0  0  0  0  0  0  0  0  0  0  0
   22.4478   27.1932   37.9360 F   0  0  0  0  0  0  0  0  0  0  0  0
   24.7220   27.0640   37.0299 H   0  0  0  0  0  0  0  0  0  0  0  0
   30.8875   28.2367   37.8426 H   0  0  0  0  0  0  0  0  0  0  0  0
   32.5281   28.7695   36.0734 H   0  0  0  0  0  0  0  0  0  0  0  0
   32.1340   28.3195   33.6952 H   0  0  0  0  0  0  0  0  0  0  0  0
   29.9373   27.4178   32.9983 H   0  0  0  0  0  0  0  0  0  0  0  0
   26.5957   27.0142   32.9876 H   0  0  0  0  0  0  0  0  0  0  0  0
   28.1243   26.1388   32.6977 H   0  0  0  0  0  0  0  0  0  0  0  0
   21.5820   23.5602   34.3063 H   0  0  0  0  0  0  0  0  0  0  0  0
   18.6202   24.7606   35.2591 H   0  0  0  0  0  0  0  0  0  0  0  0
   19.4039   23.1982   34.9887 H   0  0  0  0  0  0  0  0  0  0  0  0
   18.8134   24.1376   39.0541 H   0  0  0  0  0  0  0  0  0  0  0  0
   17.2103   24.2546   38.2444 H   0  0  0  0  0  0  0  0  0  0  0  0
   18.0837   26.2179   36.8650 H   0  0  0  0  0  0  0  0  0  0  0  0
   18.0964   26.4865   38.6229 H   0  0  0  0  0  0  0  0  0  0  0  0
  1  2  1  0
  2  3  2  0
  2  4  1  0
  4  5  2  0
  5  6  1  0
  6  7  2  0
  7  8  1  0
  8  9  2  0
  9 10  1  0
 10 11  2  0
 11 12  1  0
 12 13  2  0
 13 14  1  0
  1 15  1  0
 15 16  2  0
 16 17  1  0
 17 18  2  0
 18 19  1  0
 19 20  1  0
 20 21  2  0
 20 22  1  0
 22 23  1  0
 23 24  1  0
 24 25  1  0
 25 26  2  0
 26 27  1  0
 13  4  1  0
 26 15  1  0
 12  7  1  0
 25 18  1  0
  1 28  1  0
  8 29  1  0
  9 30  1  0
 10 31  1  0
 11 32  1  0
 14 33  1  0
 14 34  1  0
 17 35  1  0
 19 36  1  0
 19 37  1  0
 22 38  1  0
 22 39  1  0
 23 40  1  0
 23 41  1  0
M  END
$$$$
confid_4
     RDKit          3D

 41 44  0  0  0  0  0  0  0  0999 V2000
   24.5500   26.3900   36.2500 N   0  0  0  0  0  0  0  0  0  0  0  0
   25.6000   26.1300   35.4000 C   0  0  0  0  0  0  0  0  0  0  0  0
   25.4300   25.4300   34.4200 O   0  0  0  0  0  0  0  0  0  0  0  0
   26.9800   26.6300   35.7100 C   0  0  0  0  0  0  0  0  0  0  0  0
   27.3200   26.8200   36.9800 N   0  0  0  0  0  0  0  0  0  0  0  0
   28.4700   27.4000   37.3100 N   0  0  0  0  0  0  0  0  0  0  0  0
   29.4000   27.6300   36.3700 C   0  0  0  0  0  0  0  0  0  0  0  0
   30.6600   28.0500   36.8000 C   0  0  0  0  0  0  0  0  0  0  0  0
   31.5700   28.3600   35.7800 C   0  0  0  0  0  0  0  0  0  0  0  0
   31.3700   28.1000   34.4300 C   0  0  0  0  0  0  0  0  0  0  0  0
   30.1200   27.5900   34.0500 C   0  0  0  0  0  0  0  0  0  0  0  0
   29.1500   27.3400   35.0300 C   0  0  0  0  0  0  0  0  0  0  0  0
   27.8800   26.8900   34.6600 C   0  0  0  0  0  0  0  0  0  0  0  0
   27.4800   26.6100   33.3700 N   0  0  0  0  0  0  0  0  0  0  0  0
   23.2273   25.8253   36.1335 C   0  0  0  0  0  0  0  0  0  0  0  0
   22.9569   24.8692   35.2015 N   0  0  0  0  0  0  0  0  0  0  0  0
   21.7272   24.3068   35.0705 C   0  0  0  0  0  0  0  0  0  0  0  0
   20.6720   24.7094   35.9010 C   0  0  0  0  0  0  0  0  0  0  0  0
   19.3394   23.9928   35.8351 C   0  0  0  0  0  0  0  0  0  0  0  0
   18.1349   24.9061   35.8451 C   0  0  0  0  0  0  0  0  0  0  0  0
   17.0200   24.4067   35.8414 O   0  0  0  0  0  0  0  0  0  0  0  0
   18.2635   26.4050   35.8868 C   0  0  0  0  0  0  0  0  0  0  0  0
   18.7745   26.8816   37.2527 C   0  0  0  0  0  0  0  0  0  0  0  0
   19.9026   26.1365   37.7182 O   0  0  0  0  0  0  0  0  0  0  0  0
   20.9234   25.6977   36.8711 C   0  0  0  0  0  0  0  0  0  0  0  0
   22.2033   26.2460   36.9968 C   0  0  0  0  0  0  0  0  0  0  0  0
   22.4369   27.1946   37.9392 F   0  0  0  0  0  0  0  0  0  0  0  0
   24.7212   27.0640   37.0301 H   0  0  0  0  0  0  0  0  0  0  0  0
   30.8875   28.2367   37.8426 H   0  0  0  0  0  0  0  0  0  0  0  0
   32.5281   28.7695   36.0734 H   0  0  0  0  0  0  0  0  0  0  0  0
   32.1340   28.3195   33.6952 H   0  0  0  0  0  0  0  0  0  0  0  0
   29.9373   27.4178   32.9983 H   0  0  0  0  0  0  0  0  0  0  0  0
   26.5957   27.0142   32.9876 H   0  0  0  0  0  0  0  0  0  0  0  0
   28.1243   26.1388   32.6977 H   0  0  0  0  0  0  0  0  0  0  0  0
   21.5788   23.5351   34.3263 H   0  0  0  0  0  0  0  0  0  0  0  0
   19.2723   23.3075   36.7069 H   0  0  0  0  0  0  0  0  0  0  0  0
   19.2845   23.3688   34.9167 H   0  0  0  0  0  0  0  0  0  0  0  0
   18.9578   26.7383   35.0855 H   0  0  0  0  0  0  0  0  0  0  0  0
   17.2785   26.8798   35.6841 H   0  0  0  0  0  0  0  0  0  0  0  0
   17.9606   26.7962   38.0037 H   0  0  0  0  0  0  0  0  0  0  0  0
   19.0564   27.9534   37.1766 H   0  0  0  0  0  0  0  0  0  0  0  0
  1  2  1  0
  2  3  2  0
  2  4  1  0
  4  5  2  0
  5  6  1  0
  6  7  2  0
  7  8  1  0
  8  9  2  0
  9 10  1  0
 10 11  2  0
 11 12  1  0
 12 13  2  0
 13 14  1  0
  1 15  1  0
 15 16  2  0
 16 17  1  0
 17 18  2  0
 18 19  1  0
 19 20  1  0
 20 21  2  0
 20 22  1  0
 22 23  1  0
 23 24  1  0
 24 25  1  0
 25 26  2  0
 26 27  1  0
 13  4  1  0
 26 15  1  0
 12  7  1  0
 25 18  1  0
  1 28  1  0
  8 29  1  0
  9 30  1  0
 10 31  1  0
 11 32  1  0
 14 33  1  0
 14 34  1  0
 17 35  1  0
 19 36  1  0
 19 37  1  0
 22 38  1  0
 22 39  1  0
 23 40  1  0
 23 41  1  0
M  END
$$$$
confid_5
     RDKit          3D

 41 44  0  0  0  0  0  0  0  0999 V2000
   24.5500   26.3900   36.2500 N   0  0  0  0  0  0  0  0  0  0  0  0
   25.6000   26.1300   35.4000 C   0  0  0  0  0  0  0  0  0  0  0  0
   25.4300   25.4300   34.4200 O   0  0  0  0  0  0  0  0  0  0  0  0
   26.9800   26.6300   35.7100 C   0  0  0  0  0  0  0  0  0  0  0  0
   27.3200   26.8200   36.9800 N   0  0  0  0  0  0  0  0  0  0  0  0
   28.4700   27.4000   37.3100 N   0  0  0  0  0  0  0  0  0  0  0  0
   29.4000   27.6300   36.3700 C   0  0  0  0  0  0  0  0  0  0  0  0
   30.6600   28.0500   36.8000 C   0  0  0  0  0  0  0  0  0  0  0  0
   31.5700   28.3600   35.7800 C   0  0  0  0  0  0  0  0  0  0  0  0
   31.3700   28.1000   34.4300 C   0  0  0  0  0  0  0  0  0  0  0  0
   30.1200   27.5900   34.0500 C   0  0  0  0  0  0  0  0  0  0  0  0
   29.1500   27.3400   35.0300 C   0  0  0  0  0  0  0  0  0  0  0  0
   27.8800   26.8900   34.6600 C   0  0  0  0  0  0  0  0  0  0  0  0
   27.4800   26.6100   33.3700 N   0  0  0  0  0  0  0  0  0  0  0  0
   23.2248   25.8318   36.1294 C   0  0  0  0  0  0  0  0  0  0  0  0
   22.9459   24.8960   35.1794 N   0  0  0  0  0  0  0  0  0  0  0  0
   21.7117   24.3460   35.0389 C   0  0  0  0  0  0  0  0  0  0  0  0
   20.6674   24.7207   35.8959 C   0  0  0  0  0  0  0  0  0  0  0  0
   19.2658   24.1994   35.6566 C   0  0  0  0  0  0  0  0  0  0  0  0
   18.5476   23.7359   36.9033 C   0  0  0  0  0  0  0  0  0  0  0  0
   17.3949   23.3436   36.8046 O   0  0  0  0  0  0  0  0  0  0  0  0
   19.1945   23.7674   38.2618 C   0  0  0  0  0  0  0  0  0  0  0  0
   19.3669   25.2074   38.7625 C   0  0  0  0  0  0  0  0  0  0  0  0
   19.9247   26.0790   37.7758 O   0  0  0  0  0  0  0  0  0  0  0  0
   20.9307   25.6792   36.8924 C   0  0  0  0  0  0  0  0  0  0  0  0
   22.2052   26.2429   37.0025 C   0  0  0  0  0  0  0  0  0  0  0  0
   22.4472   27.1711   37.9630 F   0  0  0  0  0  0  0  0  0  0  0  0
   24.7235   27.0582   37.0346 H   0  0  0  0  0  0  0  0  0  0  0  0
   30.8875   28.2367   37.8426 H   0  0  0  0  0  0  0  0  0  0  0  0
   32.5281   28.7695   36.0734 H   0  0  0  0  0  0  0  0  0  0  0  0
   32.1340   28.3195   33.6952 H   0  0  0  0  0  0  0  0  0  0  0  0
   29.9373   27.4178   32.9983 H   0  0  0  0  0  0  0  0  0  0  0  0
   28.1243   26.1388   32.6977 H   0  0  0  0  0  0  0  0  0  0  0  0
   26.5957   27.0142   32.9876 H   0  0  0  0  0  0  0  0  0  0  0  0
   21.5443   23.6254   34.2490 H   0  0  0  0  0  0  0  0  0  0  0  0
   19.2901   23.3477   34.9425 H   0  0  0  0  0  0  0  0  0  0  0  0
   18.6712   25.0110   35.1855 H   0  0  0  0  0  0  0  0  0  0  0  0
   20.1836   23.2631   38.2113 H   0  0  0  0  0  0  0  0  0  0  0  0
   18.5766   23.2023   38.9936 H   0  0  0  0  0  0  0  0  0  0  0  0
   18.3809   25.6122   39.0745 H   0  0  0  0  0  0  0  0  0  0  0  0
   20.0297   25.2005   39.6540 H   0  0  0  0  0  0  0  0  0  0  0  0
  1  2  1  0
  2  3  2  0
  2  4  1  0
  4  5  2  0
  5  6  1  0
  6  7  2  0
  7  8  1  0
  8  9  2  0
  9 10  1  0
 10 11  2  0
 11 12  1  0
 12 13  2  0
 13 14  1  0
  1 15  1  0
 15 16  2  0
 16 17  1  0
 17 18  2  0
 18 19  1  0
 19 20  1  0
 20 21  2  0
 20 22  1  0
 22 23  1  0
 23 24  1  0
 24 25  1  0
 25 26  2  0
 26 27  1  0
 13  4  1  0
 26 15  1  0
 12  7  1  0
 25 18  1  0
  1 28  1  0
  8 29  1  0
  9 30  1  0
 10 31  1  0
 11 32  1  0
 14 33  1  0
 14 34  1  0
 17 35  1  0
 19 36  1  0
 19 37  1  0
 22 38  1  0
 22 39  1  0
 23 40  1  0
 23 41  1  0
M  END
$$$$
