confid_0
     RDKit          3D

 44 47  0  0  0  0  0  0  0  0999 V2000
   24.4800   26.1000   36.1300 N   0  0  0  0  0  0  0  0  0  0  0  0
   25.2500   26.2500   34.9900 C   0  0  0  0  0  0  0  0  0  0  0  0
   24.7400   25.7600   33.9900 O   0  0  0  0  0  0  0  0  0  0  0  0
   26.5900   26.8900   34.9600 C   0  0  0  0  0  0  0  0  0  0  0  0
   27.0600   27.2400   36.1600 N   0  0  0  0  0  0  0  0  0  0  0  0
   28.3000   27.7100   36.2400 N   0  0  0  0  0  0  0  0  0  0  0  0
   29.0500   27.9600   35.1500 C   0  0  0  0  0  0  0  0  0  0  0  0
   30.3400   28.4900   35.2600 C   0  0  0  0  0  0  0  0  0  0  0  0
   31.1100   28.8200   34.1400 C   0  0  0  0  0  0  0  0  0  0  0  0
   30.5200   28.6700   32.8800 C   0  0  0  0  0  0  0  0  0  0  0  0
   29.2900   28.0200   32.7700 C   0  0  0  0  0  0  0  0  0  0  0  0
   28.5200   27.7100   33.8900 C   0  0  0  0  0  0  0  0  0  0  0  0
   27.2700   27.0800   33.7600 C   0  0  0  0  0  0  0  0  0  0  0  0
   26.7500   26.8800   32.4900 N   0  0  0  0  0  0  0  0  0  0  0  0
   23.5317   25.0387   36.3578 C   0  0  0  0  0  0  0  0  0  0  0  0
   23.7300   23.7496   35.8157 C   0  0  0  0  0  0  0  0  0  0  0  0
   22.7897   22.7631   36.0967 C   0  0  0  0  0  0  0  0  0  0  0  0
   22.7370   21.3822   35.6886 C   0  0  0  0  0  0  0  0  0  0  0  0
   23.5755   20.7938   34.9555 O   0  0  0  0  0  0  0  0  0  0  0  0
   21.5806   20.7674   36.2436 N   0  0  0  0  0  0  0  0  0  0  0  0
   20.8517   21.7596   37.0384 C   0  0  0  0  0  0  0  0  0  0  0  0
   21.6902   23.0007   36.8924 C   0  0  0  0  0  0  0  0  0  0  0  0
   21.4740   24.2568   37.4626 C   0  0  0  0  0  0  0  0  0  0  0  0
   20.3477   24.4538   38.2749 O   0  0  0  0  0  0  0  0  0  0  0  0
   20.0236   25.6861   38.9094 C   0  0  0  0  0  0  0  0  0  0  0  0
   22.4139   25.2795   37.1912 C   0  0  0  0  0  0  0  0  0  0  0  0
   21.1861   19.3779   36.0543 C   0  0  0  0  0  0  0  0  0  0  0  0
   24.5727   26.8297   36.8725 H   0  0  0  0  0  0  0  0  0  0  0  0
   30.7582   28.6623   36.2441 H   0  0  0  0  0  0  0  0  0  0  0  0
   32.0994   29.2455   34.2469 H   0  0  0  0  0  0  0  0  0  0  0  0
   31.0716   28.9442   31.9898 H   0  0  0  0  0  0  0  0  0  0  0  0
   28.9437   27.8129   31.7669 H   0  0  0  0  0  0  0  0  0  0  0  0
   26.3616   25.9528   32.2111 H   0  0  0  0  0  0  0  0  0  0  0  0
   26.7157   27.6566   31.7925 H   0  0  0  0  0  0  0  0  0  0  0  0
   24.5976   23.5145   35.2132 H   0  0  0  0  0  0  0  0  0  0  0  0
   20.8028   21.4426   38.1018 H   0  0  0  0  0  0  0  0  0  0  0  0
   19.8362   21.9213   36.6186 H   0  0  0  0  0  0  0  0  0  0  0  0
   19.0851   25.5606   39.4870 H   0  0  0  0  0  0  0  0  0  0  0  0
   20.8349   25.9805   39.6082 H   0  0  0  0  0  0  0  0  0  0  0  0
   19.8692   26.4788   38.1472 H   0  0  0  0  0  0  0  0  0  0  0  0
   22.2837   26.2661   37.6150 H   0  0  0  0  0  0  0  0  0  0  0  0
   20.2428   19.1683   36.6016 H   0  0  0  0  0  0  0  0  0  0  0  0
   21.0281   19.1791   34.9737 H   0  0  0  0  0  0  0  0  0  0  0  0
   21.9832   18.7082   36.4394 H   0  0  0  0  0  0  0  0  0  0  0  0
  1  2  1  0
  2  3  2  0
  2  4  1  0
  4  5  2  0
  5  6  1  0
  6  7  2  0
  7  8  1  0
  8  9  2  0
  9 10  1  0
 10 11  2  0
 11 12  1  0
 12 13  2  0
 13 14  1  0
  1 15  1  0
 15 16  2  0
 16 17  1  0
 17 18  1  0
 18 19  2  0
 18 20  1  0
 20 21  1  0
 21 22  1  0
 22 23  1  0
 23 24  1  0
 24 25  1  0
 23 26  2  0
 20 27  1  0
 13  4  1  0
 26 15  1  0
 12  7  1  0
 22 17  2  0
  1 28  1  0
  8 29  1  0
  9 30  1  0
 10 31  1  0
 11 32  1  0
 14 33  1  0
 14 34  1  0
 16 35  1  0
 21 36  1  0
 21 37  1  0
 25 38  1  0
 25 39  1  0
 25 40  1  0
 26 41  1  0
 27 42  1  0
 27 43  1  0
 27 44  1  0
M  END
$$$$
confid_1
     RDKit          3D

 44 47  0  0  0  0  0  0  0  0999 V2000
   24.4800   26.1000   36.1300 N   0  0  0  0  0  0  0  0  0  0  0  0
   25.2500   26.2500   34.9900 C   0  0  0  0  0  0  0  0  0  0  0  0
   24.7400   25.7600   33.9900 O   0  0  0  0  0  0  0  0  0  0  0  0
   26.5900   26.8900   34.9600 C   0  0  0  0  0  0  0  0  0  0  0  0
   27.0600   27.2400   36.1600 N   0  0  0  0  0  0  0  0  0  0  0  0
   28.3000   27.7100   36.2400 N   0  0  0  0  0  0  0  0  0  0  0  0
   29.0500   27.9600   35.1500 C   0  0  0  0  0  0  0  0  0  0  0  0
   30.3400   28.4900   35.2600 C   0  0  0  0  0  0  0  0  0  0  0  0
   31.1100   28.8200   34.1400 C   0  0  0  0  0  0  0  0  0  0  0  0
   30.5200   28.6700   32.8800 C   0  0  0  0  0  0  0  0  0  0  0  0
   29.2900   28.0200   32.7700 C   0  0  0  0  0  0  0  0  0  0  0  0
   28.5200   27.7100   33.8900 C   0  0  0  0  0  0  0  0  0  0  0  0
   27.2700   27.0800   33.7600 C   0  0  0  0  0  0  0  0  0  0  0  0
   26.7500   26.8800   32.4900 N   0  0  0  0  0  0  0  0  0  0  0  0
   23.5312   25.0391   36.3561 C   0  0  0  0  0  0  0  0  0  0  0  0
   22.4100   25.2853   37.1713 C   0  0  0  0  0  0  0  0  0  0  0  0
   21.5147   24.2449   37.3995 C   0  0  0  0  0  0  0  0  0  0  0  0
   20.2984   24.2135   38.1713 C   0  0  0  0  0  0  0  0  0  0  0  0
   19.8008   25.1788   38.8096 O   0  0  0  0  0  0  0  0  0  0  0  0
   19.7299   22.9111   38.1078 N   0  0  0  0  0  0  0  0  0  0  0  0
   20.5868   22.0599   37.2779 C   0  0  0  0  0  0  0  0  0  0  0  0
   21.6988   22.9873   36.8675 C   0  0  0  0  0  0  0  0  0  0  0  0
   22.8106   22.6987   36.0736 C   0  0  0  0  0  0  0  0  0  0  0  0
   22.9674   21.4016   35.5633 O   0  0  0  0  0  0  0  0  0  0  0  0
   24.0545   20.9898   34.7418 C   0  0  0  0  0  0  0  0  0  0  0  0
   23.7369   23.7395   35.8244 C   0  0  0  0  0  0  0  0  0  0  0  0
   18.4979   22.4913   38.7623 C   0  0  0  0  0  0  0  0  0  0  0  0
   24.5696   26.8315   36.8712 H   0  0  0  0  0  0  0  0  0  0  0  0
   30.7582   28.6623   36.2441 H   0  0  0  0  0  0  0  0  0  0  0  0
   32.0994   29.2455   34.2469 H   0  0  0  0  0  0  0  0  0  0  0  0
   31.0716   28.9442   31.9898 H   0  0  0  0  0  0  0  0  0  0  0  0
   28.9437   27.8128   31.7669 H   0  0  0  0  0  0  0  0  0  0  0  0
   26.7157   27.6566   31.7925 H   0  0  0  0  0  0  0  0  0  0  0  0
   26.3616   25.9528   32.2112 H   0  0  0  0  0  0  0  0  0  0  0  0
   22.2392   26.2623   37.6055 H   0  0  0  0  0  0  0  0  0  0  0  0
   20.0286   21.6997   36.3878 H   0  0  0  0  0  0  0  0  0  0  0  0
   20.9842   21.2120   37.8753 H   0  0  0  0  0  0  0  0  0  0  0  0
   23.9238   19.9207   34.4766 H   0  0  0  0  0  0  0  0  0  0  0  0
   25.0129   21.1053   35.2908 H   0  0  0  0  0  0  0  0  0  0  0  0
   24.0748   21.5887   33.8068 H   0  0  0  0  0  0  0  0  0  0  0  0
   24.6246   23.5406   35.2408 H   0  0  0  0  0  0  0  0  0  0  0  0
   17.6509   23.1054   38.3915 H   0  0  0  0  0  0  0  0  0  0  0  0
   18.2917   21.4223   38.5436 H   0  0  0  0  0  0  0  0  0  0  0  0
   18.5955   22.6228   39.8601 H   0  0  0  0  0  0  0  0  0  0  0  0
  1  2  1  0
  2  3  2  0
  2  4  1  0
  4  5  2  0
  5  6  1  0
  6  7  2  0
  7  8  1  0
  8  9  2  0
  9 10  1  0
 10 11  2  0
 11 12  1  0
 12 13  2  0
 13 14  1  0
  1 15  1  0
 15 16  2  0
 16 17  1  0
 17 18  1  0
 18 19  2  0
 18 20  1  0
 20 21  1  0
 21 22  1  0
 22 23  1  0
 23 24  1  0
 24 25  1  0
 23 26  2  0
 20 27  1  0
 13  4  1  0
 26 15  1  0
 12  7  1  0
 22 17  2  0
  1 28  1  0
  8 29  1  0
  9 30  1  0
 10 31  1  0
 11 32  1  0
 14 33  1  0
 14 34  1  0
 16 35  1  0
 21 36  1  0
 21 37  1  0
 25 38  1  0
 25 39  1  0
 25 40  1  0
 26 41  1  0
 27 42  1  0
 27 43  1  0
 27 44  1  0
M  END
$$$$
confid_2
     RDKit          3D

 44 47  0  0  0  0  0  0  0  0999 V2000
   24.4800   26.1000   36.1300 N   0  0  0  0  0  0  0  0  0  0  0  0
   25.2500   26.2500   34.9900 C   0  0  0  0  0  0  0  0  0  0  0  0
   24.7400   25.7600   33.9900 O   0  0  0  0  0  0  0  0  0  0  0  0
   26.5900   26.8900   34.9600 C   0  0  0  0  0  0  0  0  0  0  0  0
   27.0600   27.2400   36.1600 N   0  0  0  0  0  0  0  0  0  0  0  0
   28.3000   27.7100   36.2400 N   0  0  0  0  0  0  0  0  0  0  0  0
   29.0500   27.9600   35.1500 C   0  0  0  0  0  0  0  0  0  0  0  0
   30.3400   28.4900   35.2600 C   0  0  0  0  0  0  0  0  0  0  0  0
   31.1100   28.8200   34.1400 C   0  0  0  0  0  0  0  0  0  0  0  0
   30.5200   28.6700   32.8800 C   0  0  0  0  0  0  0  0  0  0  0  0
   29.2900   28.0200   32.7700 C   0  0  0  0  0  0  0  0  0  0  0  0
   28.5200   27.7100   33.8900 C   0  0  0  0  0  0  0  0  0  0  0  0
   27.2700   27.0800   33.7600 C   0  0  0  0  0  0  0  0  0  0  0  0
   26.7500   26.8800   32.4900 N   0  0  0  0  0  0  0  0  0  0  0  0
   23.0405   26.0336   36.1496 C   0  0  0  0  0  0  0  0  0  0  0  0
   22.4016   25.3210   37.1823 C   0  0  0  0  0  0  0  0  0  0  0  0
   21.0108   25.2837   37.2006 C   0  0  0  0  0  0  0  0  0  0  0  0
   20.1072   24.6354   38.1167 C   0  0  0  0  0  0  0  0  0  0  0  0
   20.4359   23.9462   39.1185 O   0  0  0  0  0  0  0  0  0  0  0  0
   18.7653   24.8909   37.7199 N   0  0  0  0  0  0  0  0  0  0  0  0
   18.7781   25.7268   36.5162 C   0  0  0  0  0  0  0  0  0  0  0  0
   20.2460   25.9294   36.2536 C   0  0  0  0  0  0  0  0  0  0  0  0
   20.8428   26.6644   35.2274 C   0  0  0  0  0  0  0  0  0  0  0  0
   20.0273   27.3177   34.2917 O   0  0  0  0  0  0  0  0  0  0  0  0
   20.5187   28.0917   33.2027 C   0  0  0  0  0  0  0  0  0  0  0  0
   22.2565   26.7182   35.1844 C   0  0  0  0  0  0  0  0  0  0  0  0
   17.5729   24.4028   38.3998 C   0  0  0  0  0  0  0  0  0  0  0  0
   24.9778   26.0022   37.0437 H   0  0  0  0  0  0  0  0  0  0  0  0
   30.7580   28.6629   36.2441 H   0  0  0  0  0  0  0  0  0  0  0  0
   32.0983   29.2479   34.2470 H   0  0  0  0  0  0  0  0  0  0  0  0
   31.0669   28.9543   31.9901 H   0  0  0  0  0  0  0  0  0  0  0  0
   28.9258   27.8587   31.7656 H   0  0  0  0  0  0  0  0  0  0  0  0
   25.7670   27.1499   32.2661 H   0  0  0  0  0  0  0  0  0  0  0  0
   27.2969   26.3789   31.7552 H   0  0  0  0  0  0  0  0  0  0  0  0
   22.9749   24.8048   37.9420 H   0  0  0  0  0  0  0  0  0  0  0  0
   18.2779   26.6984   36.7150 H   0  0  0  0  0  0  0  0  0  0  0  0
   18.2987   25.1921   35.6689 H   0  0  0  0  0  0  0  0  0  0  0  0
   19.6601   28.4848   32.6208 H   0  0  0  0  0  0  0  0  0  0  0  0
   21.1139   28.9491   33.5818 H   0  0  0  0  0  0  0  0  0  0  0  0
   21.1415   27.4593   32.5352 H   0  0  0  0  0  0  0  0  0  0  0  0
   22.7487   27.3044   34.4214 H   0  0  0  0  0  0  0  0  0  0  0  0
   16.6600   24.7544   37.8743 H   0  0  0  0  0  0  0  0  0  0  0  0
   17.5573   24.7815   39.4431 H   0  0  0  0  0  0  0  0  0  0  0  0
   17.5780   23.2929   38.4107 H   0  0  0  0  0  0  0  0  0  0  0  0
  1  2  1  0
  2  3  2  0
  2  4  1  0
  4  5  2  0
  5  6  1  0
  6  7  2  0
  7  8  1  0
  8  9  2  0
  9 10  1  0
 10 11  2  0
 11 12  1  0
 12 13  2  0
 13 14  1  0
  1 15  1  0
 15 16  2  0
 16 17  1  0
 17 18  1  0
 18 19  2  0
 18 20  1  0
 20 21  1  0
 21 22  1  0
 22 23  1  0
 23 24  1  0
 24 25  1  0
 23 26  2  0
 20 27  1  0
 13  4  1  0
 26 15  1  0
 12  7  1  0
 22 17  2  0
  1 28  1  0
  8 29  1  0
  9 30  1  0
 10 31  1  0
 11 32  1  0
 14 33  1  0
 14 34  1  0
 16 35  1  0
 21 36  1  0
 21 37  1  0
 25 38  1  0
 25 39  1  0
 25 40  1  0
 26 41  1  0
 27 42  1  0
 27 43  1  0
 27 44  1  0
M  END
$$$$
confid_3
     RDKit          3D

 44 47  0  0  0  0  0  0  0  0999 V2000
   24.4800   26.1000   36.1300 N   0  0  0  0  0  0  0  0  0  0  0  0
   25.2500   26.2500   34.9900 C   0  0  0  0  0  0  0  0  0  0  0  0
   24.7400   25.7600   33.9900 O   0  0  0  0  0  0  0  0  0  0  0  0
   26.5900   26.8900   34.9600 C   0  0  0  0  0  0  0  0  0  0  0  0
   27.0600   27.2400   36.1600 N   0  0  0  0  0  0  0  0  0  0  0  0
   28.3000   27.7100   36.2400 N   0  0  0  0  0  0  0  0  0  0  0  0
   29.0500   27.9600   35.1500 C   0  0  0  0  0  0  0  0  0  0  0  0
   30.3400   28.4900   35.2600 C   0  0  0  0  0  0  0  0  0  0  0  0
   31.1100   28.8200   34.1400 C   0  0  0  0  0  0  0  0  0  0  0  0
   30.5200   28.6700   32.8800 C   0  0  0  0  0  0  0  0  0  0  0  0
   29.2900   28.0200   32.7700 C   0  0  0  0  0  0  0  0  0  0  0  0
   28.5200   27.7100   33.8900 C   0  0  0  0  0  0  0  0  0  0  0  0
   27.2700   27.0800   33.7600 C   0  0  0  0  0  0  0  0  0  0  0  0
   26.7500   26.8800   32.4900 N   0  0  0  0  0  0  0  0  0  0  0  0
   23.0405   26.0291   36.1507 C   0  0  0  0  0  0  0  0  0  0  0  0
   22.2592   26.6964   35.1813 C   0  0  0  0  0  0  0  0  0  0  0  0
   20.8737   26.6078   35.2744 C   0  0  0  0  0  0  0  0  0  0  0  0
   19.8451   27.1784   34.4421 C   0  0  0  0  0  0  0  0  0  0  0  0
   20.0297   27.8905   33.4196 O   0  0  0  0  0  0  0  0  0  0  0  0
   18.5674   26.8153   34.9509 N   0  0  0  0  0  0  0  0  0  0  0  0
   18.7511   25.9887   36.1470 C   0  0  0  0  0  0  0  0  0  0  0  0
   20.2478   25.9074   36.2824 C   0  0  0  0  0  0  0  0  0  0  0  0
   20.9877   25.2531   37.2692 C   0  0  0  0  0  0  0  0  0  0  0  0
   20.3113   24.5595   38.2834 O   0  0  0  0  0  0  0  0  0  0  0  0
   20.9559   23.8573   39.3406 C   0  0  0  0  0  0  0  0  0  0  0  0
   22.3993   25.3251   37.1974 C   0  0  0  0  0  0  0  0  0  0  0  0
   17.2854   27.2031   34.3778 C   0  0  0  0  0  0  0  0  0  0  0  0
   24.9782   26.0089   37.0442 H   0  0  0  0  0  0  0  0  0  0  0  0
   30.7582   28.6623   36.2441 H   0  0  0  0  0  0  0  0  0  0  0  0
   32.0994   29.2455   34.2469 H   0  0  0  0  0  0  0  0  0  0  0  0
   31.0715   28.9442   31.9898 H   0  0  0  0  0  0  0  0  0  0  0  0
   28.9437   27.8129   31.7669 H   0  0  0  0  0  0  0  0  0  0  0  0
   26.3612   25.9530   32.2111 H   0  0  0  0  0  0  0  0  0  0  0  0
   26.7153   27.6568   31.7928 H   0  0  0  0  0  0  0  0  0  0  0  0
   22.7120   27.2829   34.3926 H   0  0  0  0  0  0  0  0  0  0  0  0
   18.3040   26.4868   37.0334 H   0  0  0  0  0  0  0  0  0  0  0  0
   18.3166   24.9787   35.9898 H   0  0  0  0  0  0  0  0  0  0  0  0
   21.5700   24.5576   39.9452 H   0  0  0  0  0  0  0  0  0  0  0  0
   20.1854   23.4030   39.9966 H   0  0  0  0  0  0  0  0  0  0  0  0
   21.5941   23.0478   38.9277 H   0  0  0  0  0  0  0  0  0  0  0  0
   23.0088   24.8331   37.9434 H   0  0  0  0  0  0  0  0  0  0  0  0
   17.1999   28.3098   34.3702 H   0  0  0  0  0  0  0  0  0  0  0  0
   17.2108   26.8207   33.3384 H   0  0  0  0  0  0  0  0  0  0  0  0
   16.4525   26.7807   34.9785 H   0  0  0  0  0  0  0  0  0  0  0  0
  1  2  1  0
  2  3  2  0
  2  4  1  0
  4  5  2  0
  5  6  1  0
  6  7  2  0
  7  8  1  0
  8  9  2  0
  9 10  1  0
 10 11  2  0
 11 12  1  0
 12 13  2  0
 13 14  1  0
  1 15  1  0
 15 16  2  0
 16 17  1  0
 17 18  1  0
 18 19  2  0
 18 20  1  0
 20 21  1  0
 21 22  1  0
 22 23  1  0
 23 24  1  0
 24 25  1  0
 23 26  2  0
 20 27  1  0
 13  4  1  0
 26 15  1  0
 12  7  1  0
 22 17  2  0
  1 28  1  0
  8 29  1  0
  9 30  1  0
 10 31  1  0
 11 32  1  0
 14 33  1  0
 14 34  1  0
 16 35  1  0
 21 36  1  0
 21 37  1  0
 25 38  1  0
 25 39  1  0
 25 40  1  0
 26 41  1  0
 27 42  1  0
 27 43  1  0
 27 44  1  0
M  END
$$$$
confid_4
     RDKit          3D

 44 47  0  0  0  0  0  0  0  0999 V2000
   24.4800   26.1000   36.1300 N   0  0  0  0  0  0  0  0  0  0  0  0
   25.2500   26.2500   34.9900 C   0  0  0  0  0  0  0  0  0  0  0  0
   24.7400   25.7600   33.9900 O   0  0  0  0  0  0  0  0  0  0  0  0
   26.5900   26.8900   34.9600 C   0  0  0  0  0  0  0  0  0  0  0  0
   27.0600   27.2400   36.1600 N   0  0  0  0  0  0  0  0  0  0  0  0
   28.3000   27.7100   36.2400 N   0  0  0  0  0  0  0  0  0  0  0  0
   29.0500   27.9600   35.1500 C   0  0  0  0  0  0  0  0  0  0  0  0
   30.3400   28.4900   35.2600 C   0  0  0  0  0  0  0  0  0  0  0  0
   31.1100   28.8200   34.1400 C   0  0  0  0  0  0  0  0  0  0  0  0
   30.5200   28.6700   32.8800 C   0  0  0  0  0  0  0  0  0  0  0  0
   29.2900   28.0200   32.7700 C   0  0  0  0  0  0  0  0  0  0  0  0
   28.5200   27.7100   33.8900 C   0  0  0  0  0  0  0  0  0  0  0  0
   27.2700   27.0800   33.7600 C   0  0  0  0  0  0  0  0  0  0  0  0
   26.7500   26.8800   32.4900 N   0  0  0  0  0  0  0  0  0  0  0  0
   23.5307   25.0395   36.3575 C   0  0  0  0  0  0  0  0  0  0  0  0
   23.7260   23.7533   35.8180 C   0  0  0  0  0  0  0  0  0  0  0  0
   22.7867   22.7669   36.0990 C   0  0  0  0  0  0  0  0  0  0  0  0
   22.7633   21.3898   35.6812 C   0  0  0  0  0  0  0  0  0  0  0  0
   23.6162   20.8228   34.9477 O   0  0  0  0  0  0  0  0  0  0  0  0
   21.6208   20.7503   36.2263 N   0  0  0  0  0  0  0  0  0  0  0  0
   20.8720   21.7214   37.0262 C   0  0  0  0  0  0  0  0  0  0  0  0
   21.6785   22.9957   36.8970 C   0  0  0  0  0  0  0  0  0  0  0  0
   21.4696   24.2742   37.4666 C   0  0  0  0  0  0  0  0  0  0  0  0
   20.3882   24.6243   38.2940 O   0  0  0  0  0  0  0  0  0  0  0  0
   19.2894   23.7959   38.6514 C   0  0  0  0  0  0  0  0  0  0  0  0
   22.4157   25.2792   37.1890 C   0  0  0  0  0  0  0  0  0  0  0  0
   21.2558   19.3537   36.0287 C   0  0  0  0  0  0  0  0  0  0  0  0
   24.5729   26.8297   36.8725 H   0  0  0  0  0  0  0  0  0  0  0  0
   30.7580   28.6629   36.2441 H   0  0  0  0  0  0  0  0  0  0  0  0
   32.0983   29.2479   34.2470 H   0  0  0  0  0  0  0  0  0  0  0  0
   31.0669   28.9543   31.9901 H   0  0  0  0  0  0  0  0  0  0  0  0
   28.9258   27.8587   31.7656 H   0  0  0  0  0  0  0  0  0  0  0  0
   27.2968   26.3786   31.7554 H   0  0  0  0  0  0  0  0  0  0  0  0
   25.7672   27.1502   32.2658 H   0  0  0  0  0  0  0  0  0  0  0  0
   24.5944   23.5177   35.2166 H   0  0  0  0  0  0  0  0  0  0  0  0
   20.8375   21.3797   38.0811 H   0  0  0  0  0  0  0  0  0  0  0  0
   19.8566   21.8469   36.5978 H   0  0  0  0  0  0  0  0  0  0  0  0
   18.5944   24.3830   39.2859 H   0  0  0  0  0  0  0  0  0  0  0  0
   18.7344   23.4780   37.7459 H   0  0  0  0  0  0  0  0  0  0  0  0
   19.6357   22.9272   39.2458 H   0  0  0  0  0  0  0  0  0  0  0  0
   22.2760   26.2639   37.6181 H   0  0  0  0  0  0  0  0  0  0  0  0
   22.0660   18.6988   36.4119 H   0  0  0  0  0  0  0  0  0  0  0  0
   20.3162   19.1214   36.5730 H   0  0  0  0  0  0  0  0  0  0  0  0
   21.1040   19.1575   34.9468 H   0  0  0  0  0  0  0  0  0  0  0  0
  1  2  1  0
  2  3  2  0
  2  4  1  0
  4  5  2  0
  5  6  1  0
  6  7  2  0
  7  8  1  0
  8  9  2  0
  9 10  1  0
 10 11  2  0
 11 12  1  0
 12 13  2  0
 13 14  1  0
  1 15  1  0
 15 16  2  0
 16 17  1  0
 17 18  1  0
 18 19  2  0
 18 20  1  0
 20 21  1  0
 21 22  1  0
 22 23  1  0
 23 24  1  0
 24 25  1  0
 23 26  2  0
 20 27  1  0
 13  4  1  0
 26 15  1  0
 12  7  1  0
 22 17  2  0
  1 28  1  0
  8 29  1  0
  9 30  1  0
 10 31  1  0
 11 32  1  0
 14 33  1  0
 14 34  1  0
 16 35  1  0
 21 36  1  0
 21 37  1  0
 25 38  1  0
 25 39  1  0
 25 40  1  0
 26 41  1  0
 27 42  1  0
 27 43  1  0
 27 44  1  0
M  END
$$$$
