confid_0
     RDKit          3D

 45 48  0  0  0  0  0  0  0  0999 V2000
   24.6900   26.1200   35.5300 N   0  0  0  0  0  0  0  0  0  0  0  0
   25.6600   25.6700   34.6600 C   0  0  0  0  0  0  0  0  0  0  0  0
   25.2400   25.0100   33.7200 O   0  0  0  0  0  0  0  0  0  0  0  0
   27.0300   26.2200   34.8800 C   0  0  0  0  0  0  0  0  0  0  0  0
   27.3500   26.7300   36.0700 N   0  0  0  0  0  0  0  0  0  0  0  0
   28.5700   27.1800   36.3300 N   0  0  0  0  0  0  0  0  0  0  0  0
   29.5300   27.1100   35.3900 C   0  0  0  0  0  0  0  0  0  0  0  0
   30.8300   27.5700   35.6500 C   0  0  0  0  0  0  0  0  0  0  0  0
   31.8500   27.5400   34.6900 C   0  0  0  0  0  0  0  0  0  0  0  0
   31.5100   27.1200   33.4000 C   0  0  0  0  0  0  0  0  0  0  0  0
   30.2200   26.6300   33.1100 C   0  0  0  0  0  0  0  0  0  0  0  0
   29.2400   26.6600   34.1000 C   0  0  0  0  0  0  0  0  0  0  0  0
   27.9300   26.2600   33.8100 C   0  0  0  0  0  0  0  0  0  0  0  0
   27.5200   25.7100   32.6100 N   0  0  0  0  0  0  0  0  0  0  0  0
   23.4799   25.3871   35.8104 C   0  0  0  0  0  0  0  0  0  0  0  0
   23.4761   24.0349   35.6641 N   0  0  0  0  0  0  0  0  0  0  0  0
   22.3966   23.2726   35.9593 C   0  0  0  0  0  0  0  0  0  0  0  0
   21.2424   23.8577   36.4861 C   0  0  0  0  0  0  0  0  0  0  0  0
   20.0380   22.9980   36.7595 C   0  0  0  0  0  0  0  0  0  0  0  0
   19.2283   23.5543   37.8854 C   0  0  0  0  0  0  0  0  0  0  0  0
   18.5387   22.7733   38.5962 O   0  0  0  0  0  0  0  0  0  0  0  0
   19.2039   24.9711   38.1260 N   0  0  0  0  0  0  0  0  0  0  0  0
   19.9450   25.8888   37.2491 C   0  0  0  0  0  0  0  0  0  0  0  0
   21.2012   25.2548   36.6761 C   0  0  0  0  0  0  0  0  0  0  0  0
   22.3115   26.0433   36.2695 C   0  0  0  0  0  0  0  0  0  0  0  0
   22.2604   27.5542   36.3275 C   0  0  0  0  0  0  0  0  0  0  0  0
   18.3150   25.5121   39.1572 C   0  0  0  0  0  0  0  0  0  0  0  0
   24.8601   27.0024   36.0638 H   0  0  0  0  0  0  0  0  0  0  0  0
   31.0673   27.9415   36.6393 H   0  0  0  0  0  0  0  0  0  0  0  0
   32.8486   27.8873   34.9214 H   0  0  0  0  0  0  0  0  0  0  0  0
   32.2654   27.1210   32.6249 H   0  0  0  0  0  0  0  0  0  0  0  0
   30.0114   26.2784   32.1079 H   0  0  0  0  0  0  0  0  0  0  0  0
   27.3405   24.6833   32.5418 H   0  0  0  0  0  0  0  0  0  0  0  0
   27.6982   26.2227   31.7183 H   0  0  0  0  0  0  0  0  0  0  0  0
   22.4457   22.2039   35.7945 H   0  0  0  0  0  0  0  0  0  0  0  0
   19.4067   22.9575   35.8470 H   0  0  0  0  0  0  0  0  0  0  0  0
   20.3537   21.9626   37.0156 H   0  0  0  0  0  0  0  0  0  0  0  0
   20.2230   26.7876   37.8397 H   0  0  0  0  0  0  0  0  0  0  0  0
   19.2856   26.2045   36.4129 H   0  0  0  0  0  0  0  0  0  0  0  0
   21.2367   27.9333   36.1305 H   0  0  0  0  0  0  0  0  0  0  0  0
   22.5998   27.9020   37.3254 H   0  0  0  0  0  0  0  0  0  0  0  0
   22.8958   28.0109   35.5407 H   0  0  0  0  0  0  0  0  0  0  0  0
   18.3338   26.6228   39.1659 H   0  0  0  0  0  0  0  0  0  0  0  0
   18.6337   25.1446   40.1554 H   0  0  0  0  0  0  0  0  0  0  0  0
   17.2707   25.1870   38.9626 H   0  0  0  0  0  0  0  0  0  0  0  0
  1  2  1  0
  2  3  2  0
  2  4  1  0
  4  5  2  0
  5  6  1  0
  6  7  2  0
  7  8  1  0
  8  9  2  0
  9 10  1  0
 10 11  2  0
 11 12  1  0
 12 13  2  0
 13 14  1  0
  1 15  1  0
 15 16  2  0
 16 17  1  0
 17 18  2  0
 18 19  1  0
 19 20  1  0
 20 21  2  0
 20 22  1  0
 22 23  1  0
 23 24  1  0
 24 25  2  0
 25 26  1  0
 22 27  1  0
 13  4  1  0
 25 15  1  0
 12  7  1  0
 24 18  1  0
  1 28  1  0
  8 29  1  0
  9 30  1  0
 10 31  1  0
 11 32  1  0
 14 33  1  0
 14 34  1  0
 17 35  1  0
 19 36  1  0
 19 37  1  0
 23 38  1  0
 23 39  1  0
 26 40  1  0
 26 41  1  0
 26 42  1  0
 27 43  1  0
 27 44  1  0
 27 45  1  0
M  END
$$$$
confid_1
     RDKit          3D

 45 48  0  0  0  0  0  0  0  0999 V2000
   24.6900   26.1200   35.5300 N   0  0  0  0  0  0  0  0  0  0  0  0
   25.6600   25.6700   34.6600 C   0  0  0  0  0  0  0  0  0  0  0  0
   25.2400   25.0100   33.7200 O   0  0  0  0  0  0  0  0  0  0  0  0
   27.0300   26.2200   34.8800 C   0  0  0  0  0  0  0  0  0  0  0  0
   27.3500   26.7300   36.0700 N   0  0  0  0  0  0  0  0  0  0  0  0
   28.5700   27.1800   36.3300 N   0  0  0  0  0  0  0  0  0  0  0  0
   29.5300   27.1100   35.3900 C   0  0  0  0  0  0  0  0  0  0  0  0
   30.8300   27.5700   35.6500 C   0  0  0  0  0  0  0  0  0  0  0  0
   31.8500   27.5400   34.6900 C   0  0  0  0  0  0  0  0  0  0  0  0
   31.5100   27.1200   33.4000 C   0  0  0  0  0  0  0  0  0  0  0  0
   30.2200   26.6300   33.1100 C   0  0  0  0  0  0  0  0  0  0  0  0
   29.2400   26.6600   34.1000 C   0  0  0  0  0  0  0  0  0  0  0  0
   27.9300   26.2600   33.8100 C   0  0  0  0  0  0  0  0  0  0  0  0
   27.5200   25.7100   32.6100 N   0  0  0  0  0  0  0  0  0  0  0  0
   23.2721   26.0782   35.2582 C   0  0  0  0  0  0  0  0  0  0  0  0
   22.8330   26.2460   33.9813 N   0  0  0  0  0  0  0  0  0  0  0  0
   21.5172   26.2795   33.6603 C   0  0  0  0  0  0  0  0  0  0  0  0
   20.5446   26.1939   34.6601 C   0  0  0  0  0  0  0  0  0  0  0  0
   19.0891   26.1781   34.2768 C   0  0  0  0  0  0  0  0  0  0  0  0
   18.2429   26.7678   35.3593 C   0  0  0  0  0  0  0  0  0  0  0  0
   17.1403   27.3034   35.0598 O   0  0  0  0  0  0  0  0  0  0  0  0
   18.6621   26.6796   36.7321 N   0  0  0  0  0  0  0  0  0  0  0  0
   19.8867   25.9480   37.0875 C   0  0  0  0  0  0  0  0  0  0  0  0
   20.9477   26.0425   36.0044 C   0  0  0  0  0  0  0  0  0  0  0  0
   22.3312   25.9180   36.3053 C   0  0  0  0  0  0  0  0  0  0  0  0
   22.8024   25.6205   37.7125 C   0  0  0  0  0  0  0  0  0  0  0  0
   17.7837   27.1871   37.7887 C   0  0  0  0  0  0  0  0  0  0  0  0
   24.9745   26.5423   36.4435 H   0  0  0  0  0  0  0  0  0  0  0  0
   31.0673   27.9415   36.6393 H   0  0  0  0  0  0  0  0  0  0  0  0
   32.8483   27.8884   34.9212 H   0  0  0  0  0  0  0  0  0  0  0  0
   32.2640   27.1262   32.6235 H   0  0  0  0  0  0  0  0  0  0  0  0
   30.0102   26.3032   32.1004 H   0  0  0  0  0  0  0  0  0  0  0  0
   26.6934   26.1020   32.1059 H   0  0  0  0  0  0  0  0  0  0  0  0
   28.1315   25.0434   32.0893 H   0  0  0  0  0  0  0  0  0  0  0  0
   21.2308   26.3934   32.6236 H   0  0  0  0  0  0  0  0  0  0  0  0
   18.9310   26.7520   33.3378 H   0  0  0  0  0  0  0  0  0  0  0  0
   18.7726   25.1278   34.1048 H   0  0  0  0  0  0  0  0  0  0  0  0
   19.6352   24.8787   37.2533 H   0  0  0  0  0  0  0  0  0  0  0  0
   20.2853   26.3673   38.0357 H   0  0  0  0  0  0  0  0  0  0  0  0
   22.9239   26.5700   38.2754 H   0  0  0  0  0  0  0  0  0  0  0  0
   23.7647   25.0677   37.7099 H   0  0  0  0  0  0  0  0  0  0  0  0
   22.0875   24.9597   38.2460 H   0  0  0  0  0  0  0  0  0  0  0  0
   17.6765   28.2866   37.6883 H   0  0  0  0  0  0  0  0  0  0  0  0
   18.1921   26.9641   38.7965 H   0  0  0  0  0  0  0  0  0  0  0  0
   16.7830   26.7116   37.7086 H   0  0  0  0  0  0  0  0  0  0  0  0
  1  2  1  0
  2  3  2  0
  2  4  1  0
  4  5  2  0
  5  6  1  0
  6  7  2  0
  7  8  1  0
  8  9  2  0
  9 10  1  0
 10 11  2  0
 11 12  1  0
 12 13  2  0
 13 14  1  0
  1 15  1  0
 15 16  2  0
 16 17  1  0
 17 18  2  0
 18 19  1  0
 19 20  1  0
 20 21  2  0
 20 22  1  0
 22 23  1  0
 23 24  1  0
 24 25  2  0
 25 26  1  0
 22 27  1  0
 13  4  1  0
 25 15  1  0
 12  7  1  0
 24 18  1  0
  1 28  1  0
  8 29  1  0
  9 30  1  0
 10 31  1  0
 11 32  1  0
 14 33  1  0
 14 34  1  0
 17 35  1  0
 19 36  1  0
 19 37  1  0
 23 38  1  0
 23 39  1  0
 26 40  1  0
 26 41  1  0
 26 42  1  0
 27 43  1  0
 27 44  1  0
 27 45  1  0
M  END
$$$$
confid_2
     RDKit          3D

 45 48  0  0  0  0  0  0  0  0999 V2000
   24.6900   26.1200   35.5300 N   0  0  0  0  0  0  0  0  0  0  0  0
   25.6600   25.6700   34.6600 C   0  0  0  0  0  0  0  0  0  0  0  0
   25.2400   25.0100   33.7200 O   0  0  0  0  0  0  0  0  0  0  0  0
   27.0300   26.2200   34.8800 C   0  0  0  0  0  0  0  0  0  0  0  0
   27.3500   26.7300   36.0700 N   0  0  0  0  0  0  0  0  0  0  0  0
   28.5700   27.1800   36.3300 N   0  0  0  0  0  0  0  0  0  0  0  0
   29.5300   27.1100   35.3900 C   0  0  0  0  0  0  0  0  0  0  0  0
   30.8300   27.5700   35.6500 C   0  0  0  0  0  0  0  0  0  0  0  0
   31.8500   27.5400   34.6900 C   0  0  0  0  0  0  0  0  0  0  0  0
   31.5100   27.1200   33.4000 C   0  0  0  0  0  0  0  0  0  0  0  0
   30.2200   26.6300   33.1100 C   0  0  0  0  0  0  0  0  0  0  0  0
   29.2400   26.6600   34.1000 C   0  0  0  0  0  0  0  0  0  0  0  0
   27.9300   26.2600   33.8100 C   0  0  0  0  0  0  0  0  0  0  0  0
   27.5200   25.7100   32.6100 N   0  0  0  0  0  0  0  0  0  0  0  0
   23.2911   26.2222   35.1900 C   0  0  0  0  0  0  0  0  0  0  0  0
   22.9385   26.4913   33.9034 N   0  0  0  0  0  0  0  0  0  0  0  0
   21.6506   26.6628   33.5197 C   0  0  0  0  0  0  0  0  0  0  0  0
   20.6221   26.6213   34.4641 C   0  0  0  0  0  0  0  0  0  0  0  0
   19.1948   26.7782   34.0118 C   0  0  0  0  0  0  0  0  0  0  0  0
   18.3631   27.4040   35.0855 C   0  0  0  0  0  0  0  0  0  0  0  0
   17.3534   28.0876   34.7669 O   0  0  0  0  0  0  0  0  0  0  0  0
   18.6944   27.1943   36.4682 N   0  0  0  0  0  0  0  0  0  0  0  0
   19.8102   26.3099   36.8344 C   0  0  0  0  0  0  0  0  0  0  0  0
   20.9357   26.3629   35.8155 C   0  0  0  0  0  0  0  0  0  0  0  0
   22.2836   26.0937   36.1777 C   0  0  0  0  0  0  0  0  0  0  0  0
   22.6454   25.6808   37.5872 C   0  0  0  0  0  0  0  0  0  0  0  0
   17.8273   27.7457   37.5124 C   0  0  0  0  0  0  0  0  0  0  0  0
   24.9698   26.4499   36.4805 H   0  0  0  0  0  0  0  0  0  0  0  0
   31.0673   27.9412   36.6394 H   0  0  0  0  0  0  0  0  0  0  0  0
   32.8486   27.8873   34.9214 H   0  0  0  0  0  0  0  0  0  0  0  0
   32.2654   27.1211   32.6249 H   0  0  0  0  0  0  0  0  0  0  0  0
   30.0114   26.2783   32.1079 H   0  0  0  0  0  0  0  0  0  0  0  0
   27.6976   26.2229   31.7183 H   0  0  0  0  0  0  0  0  0  0  0  0
   27.3405   24.6834   32.5417 H   0  0  0  0  0  0  0  0  0  0  0  0
   21.4314   26.8476   32.4756 H   0  0  0  0  0  0  0  0  0  0  0  0
   18.7786   25.7779   33.7684 H   0  0  0  0  0  0  0  0  0  0  0  0
   19.1470   27.4118   33.0995 H   0  0  0  0  0  0  0  0  0  0  0  0
   19.4374   25.2660   36.9019 H   0  0  0  0  0  0  0  0  0  0  0  0
   20.1913   26.6142   37.8316 H   0  0  0  0  0  0  0  0  0  0  0  0
   21.8561   25.0408   38.0315 H   0  0  0  0  0  0  0  0  0  0  0  0
   22.7917   26.5838   38.2163 H   0  0  0  0  0  0  0  0  0  0  0  0
   23.5671   25.0641   37.6086 H   0  0  0  0  0  0  0  0  0  0  0  0
   17.8426   28.8557   37.4622 H   0  0  0  0  0  0  0  0  0  0  0  0
   16.7865   27.3844   37.3659 H   0  0  0  0  0  0  0  0  0  0  0  0
   18.1616   27.4331   38.5255 H   0  0  0  0  0  0  0  0  0  0  0  0
  1  2  1  0
  2  3  2  0
  2  4  1  0
  4  5  2  0
  5  6  1  0
  6  7  2  0
  7  8  1  0
  8  9  2  0
  9 10  1  0
 10 11  2  0
 11 12  1  0
 12 13  2  0
 13 14  1  0
  1 15  1  0
 15 16  2  0
 16 17  1  0
 17 18  2  0
 18 19  1  0
 19 20  1  0
 20 21  2  0
 20 22  1  0
 22 23  1  0
 23 24  1  0
 24 25  2  0
 25 26  1  0
 22 27  1  0
 13  4  1  0
 25 15  1  0
 12  7  1  0
 24 18  1  0
  1 28  1  0
  8 29  1  0
  9 30  1  0
 10 31  1  0
 11 32  1  0
 14 33  1  0
 14 34  1  0
 17 35  1  0
 19 36  1  0
 19 37  1  0
 23 38  1  0
 23 39  1  0
 26 40  1  0
 26 41  1  0
 26 42  1  0
 27 43  1  0
 27 44  1  0
 27 45  1  0
M  END
$$$$
confid_3
     RDKit          3D

 45 48  0  0  0  0  0  0  0  0999 V2000
   24.6900   26.1200   35.5300 N   0  0  0  0  0  0  0  0  0  0  0  0
   25.6600   25.6700   34.6600 C   0  0  0  0  0  0  0  0  0  0  0  0
   25.2400   25.0100   33.7200 O   0  0  0  0  0  0  0  0  0  0  0  0
   27.0300   26.2200   34.8800 C   0  0  0  0  0  0  0  0  0  0  0  0
   27.3500   26.7300   36.0700 N   0  0  0  0  0  0  0  0  0  0  0  0
   28.5700   27.1800   36.3300 N   0  0  0  0  0  0  0  0  0  0  0  0
   29.5300   27.1100   35.3900 C   0  0  0  0  0  0  0  0  0  0  0  0
   30.8300   27.5700   35.6500 C   0  0  0  0  0  0  0  0  0  0  0  0
   31.8500   27.5400   34.6900 C   0  0  0  0  0  0  0  0  0  0  0  0
   31.5100   27.1200   33.4000 C   0  0  0  0  0  0  0  0  0  0  0  0
   30.2200   26.6300   33.1100 C   0  0  0  0  0  0  0  0  0  0  0  0
   29.2400   26.6600   34.1000 C   0  0  0  0  0  0  0  0  0  0  0  0
   27.9300   26.2600   33.8100 C   0  0  0  0  0  0  0  0  0  0  0  0
   27.5200   25.7100   32.6100 N   0  0  0  0  0  0  0  0  0  0  0  0
   23.3055   25.7101   35.4980 C   0  0  0  0  0  0  0  0  0  0  0  0
   22.6844   25.5441   34.2989 N   0  0  0  0  0  0  0  0  0  0  0  0
   21.3747   25.2152   34.1953 C   0  0  0  0  0  0  0  0  0  0  0  0
   20.5862   25.0886   35.3424 C   0  0  0  0  0  0  0  0  0  0  0  0
   19.1466   24.6699   35.2066 C   0  0  0  0  0  0  0  0  0  0  0  0
   18.3179   25.2221   36.3216 C   0  0  0  0  0  0  0  0  0  0  0  0
   17.0846   25.4161   36.1369 O   0  0  0  0  0  0  0  0  0  0  0  0
   18.9146   25.4849   37.6036 N   0  0  0  0  0  0  0  0  0  0  0  0
   20.3172   25.1259   37.8541 C   0  0  0  0  0  0  0  0  0  0  0  0
   21.1764   25.2734   36.6100 C   0  0  0  0  0  0  0  0  0  0  0  0
   22.5714   25.5280   36.6955 C   0  0  0  0  0  0  0  0  0  0  0  0
   23.2689   25.6064   38.0356 C   0  0  0  0  0  0  0  0  0  0  0  0
   18.0799   25.9807   38.7015 C   0  0  0  0  0  0  0  0  0  0  0  0
   24.9437   26.8030   36.2789 H   0  0  0  0  0  0  0  0  0  0  0  0
   31.0673   27.9417   36.6393 H   0  0  0  0  0  0  0  0  0  0  0  0
   32.8483   27.8885   34.9210 H   0  0  0  0  0  0  0  0  0  0  0  0
   32.2640   27.1264   32.6234 H   0  0  0  0  0  0  0  0  0  0  0  0
   30.0099   26.3034   32.1004 H   0  0  0  0  0  0  0  0  0  0  0  0
   26.6939   26.1027   32.1056 H   0  0  0  0  0  0  0  0  0  0  0  0
   28.1311   25.0428   32.0896 H   0  0  0  0  0  0  0  0  0  0  0  0
   20.9449   25.0665   33.2132 H   0  0  0  0  0  0  0  0  0  0  0  0
   19.0881   23.5624   35.2283 H   0  0  0  0  0  0  0  0  0  0  0  0
   18.7333   25.0262   34.2393 H   0  0  0  0  0  0  0  0  0  0  0  0
   20.7119   25.7799   38.6604 H   0  0  0  0  0  0  0  0  0  0  0  0
   20.3642   24.0716   38.2016 H   0  0  0  0  0  0  0  0  0  0  0  0
   24.3451   25.3439   37.9569 H   0  0  0  0  0  0  0  0  0  0  0  0
   22.8380   24.8756   38.7509 H   0  0  0  0  0  0  0  0  0  0  0  0
   23.1709   26.6315   38.4486 H   0  0  0  0  0  0  0  0  0  0  0  0
   17.6821   26.9844   38.4428 H   0  0  0  0  0  0  0  0  0  0  0  0
   18.6559   26.0592   39.6468 H   0  0  0  0  0  0  0  0  0  0  0  0
   17.2325   25.2843   38.8740 H   0  0  0  0  0  0  0  0  0  0  0  0
  1  2  1  0
  2  3  2  0
  2  4  1  0
  4  5  2  0
  5  6  1  0
  6  7  2  0
  7  8  1  0
  8  9  2  0
  9 10  1  0
 10 11  2  0
 11 12  1  0
 12 13  2  0
 13 14  1  0
  1 15  1  0
 15 16  2  0
 16 17  1  0
 17 18  2  0
 18 19  1  0
 19 20  1  0
 20 21  2  0
 20 22  1  0
 22 23  1  0
 23 24  1  0
 24 25  2  0
 25 26  1  0
 22 27  1  0
 13  4  1  0
 25 15  1  0
 12  7  1  0
 24 18  1  0
  1 28  1  0
  8 29  1  0
  9 30  1  0
 10 31  1  0
 11 32  1  0
 14 33  1  0
 14 34  1  0
 17 35  1  0
 19 36  1  0
 19 37  1  0
 23 38  1  0
 23 39  1  0
 26 40  1  0
 26 41  1  0
 26 42  1  0
 27 43  1  0
 27 44  1  0
 27 45  1  0
M  END
$$$$
confid_4
     RDKit          3D

 45 48  0  0  0  0  0  0  0  0999 V2000
   24.6900   26.1200   35.5300 N   0  0  0  0  0  0  0  0  0  0  0  0
   25.6600   25.6700   34.6600 C   0  0  0  0  0  0  0  0  0  0  0  0
   25.2400   25.0100   33.7200 O   0  0  0  0  0  0  0  0  0  0  0  0
   27.0300   26.2200   34.8800 C   0  0  0  0  0  0  0  0  0  0  0  0
   27.3500   26.7300   36.0700 N   0  0  0  0  0  0  0  0  0  0  0  0
   28.5700   27.1800   36.3300 N   0  0  0  0  0  0  0  0  0  0  0  0
   29.5300   27.1100   35.3900 C   0  0  0  0  0  0  0  0  0  0  0  0
   30.8300   27.5700   35.6500 C   0  0  0  0  0  0  0  0  0  0  0  0
   31.8500   27.5400   34.6900 C   0  0  0  0  0  0  0  0  0  0  0  0
   31.5100   27.1200   33.4000 C   0  0  0  0  0  0  0  0  0  0  0  0
   30.2200   26.6300   33.1100 C   0  0  0  0  0  0  0  0  0  0  0  0
   29.2400   26.6600   34.1000 C   0  0  0  0  0  0  0  0  0  0  0  0
   27.9300   26.2600   33.8100 C   0  0  0  0  0  0  0  0  0  0  0  0
   27.5200   25.7100   32.6100 N   0  0  0  0  0  0  0  0  0  0  0  0
   23.2708   25.9383   35.3387 C   0  0  0  0  0  0  0  0  0  0  0  0
   22.7553   25.9816   34.0800 N   0  0  0  0  0  0  0  0  0  0  0  0
   21.4275   25.8905   33.8324 C   0  0  0  0  0  0  0  0  0  0  0  0
   20.5174   25.8039   34.8891 C   0  0  0  0  0  0  0  0  0  0  0  0
   19.0493   25.6546   34.5923 C   0  0  0  0  0  0  0  0  0  0  0  0
   18.2232   26.2709   35.6748 C   0  0  0  0  0  0  0  0  0  0  0  0
   17.0825   26.7300   35.3981 O   0  0  0  0  0  0  0  0  0  0  0  0
   18.7121   26.3024   37.0251 N   0  0  0  0  0  0  0  0  0  0  0  0
   20.0061   25.6877   37.3618 C   0  0  0  0  0  0  0  0  0  0  0  0
   20.9986   25.7795   36.2149 C   0  0  0  0  0  0  0  0  0  0  0  0
   22.4004   25.7821   36.4447 C   0  0  0  0  0  0  0  0  0  0  0  0
   22.9628   25.6282   37.8385 C   0  0  0  0  0  0  0  0  0  0  0  0
   17.8545   26.8343   38.0874 C   0  0  0  0  0  0  0  0  0  0  0  0
   24.9686   26.6529   36.3837 H   0  0  0  0  0  0  0  0  0  0  0  0
   31.0672   27.9415   36.6393 H   0  0  0  0  0  0  0  0  0  0  0  0
   32.8487   27.8871   34.9214 H   0  0  0  0  0  0  0  0  0  0  0  0
   32.2656   27.1205   32.6250 H   0  0  0  0  0  0  0  0  0  0  0  0
   30.0114   26.2779   32.1080 H   0  0  0  0  0  0  0  0  0  0  0  0
   27.6962   26.2237   31.7184 H   0  0  0  0  0  0  0  0  0  0  0  0
   27.3412   24.6832   32.5415 H   0  0  0  0  0  0  0  0  0  0  0  0
   21.0803   25.9021   32.8063 H   0  0  0  0  0  0  0  0  0  0  0  0
   18.7985   26.1372   33.6216 H   0  0  0  0  0  0  0  0  0  0  0  0
   18.8023   24.5738   34.5213 H   0  0  0  0  0  0  0  0  0  0  0  0
   20.4221   26.2029   38.2566 H   0  0  0  0  0  0  0  0  0  0  0  0
   19.8443   24.6162   37.6158 H   0  0  0  0  0  0  0  0  0  0  0  0
   22.3368   24.9486   38.4516 H   0  0  0  0  0  0  0  0  0  0  0  0
   23.9708   25.1626   37.8206 H   0  0  0  0  0  0  0  0  0  0  0  0
   23.0232   26.6208   38.3304 H   0  0  0  0  0  0  0  0  0  0  0  0
   18.3364   26.7362   39.0808 H   0  0  0  0  0  0  0  0  0  0  0  0
   16.8950   26.2782   38.1131 H   0  0  0  0  0  0  0  0  0  0  0  0
   17.6487   27.9087   37.8998 H   0  0  0  0  0  0  0  0  0  0  0  0
  1  2  1  0
  2  3  2  0
  2  4  1  0
  4  5  2  0
  5  6  1  0
  6  7  2  0
  7  8  1  0
  8  9  2  0
  9 10  1  0
 10 11  2  0
 11 12  1  0
 12 13  2  0
 13 14  1  0
  1 15  1  0
 15 16  2  0
 16 17  1  0
 17 18  2  0
 18 19  1  0
 19 20  1  0
 20 21  2  0
 20 22  1  0
 22 23  1  0
 23 24  1  0
 24 25  2  0
 25 26  1  0
 22 27  1  0
 13  4  1  0
 25 15  1  0
 12  7  1  0
 24 18  1  0
  1 28  1  0
  8 29  1  0
  9 30  1  0
 10 31  1  0
 11 32  1  0
 14 33  1  0
 14 34  1  0
 17 35  1  0
 19 36  1  0
 19 37  1  0
 23 38  1  0
 23 39  1  0
 26 40  1  0
 26 41  1  0
 26 42  1  0
 27 43  1  0
 27 44  1  0
 27 45  1  0
M  END
$$$$
confid_5
     RDKit          3D

 45 48  0  0  0  0  0  0  0  0999 V2000
   24.6900   26.1200   35.5300 N   0  0  0  0  0  0  0  0  0  0  0  0
   25.6600   25.6700   34.6600 C   0  0  0  0  0  0  0  0  0  0  0  0
   25.2400   25.0100   33.7200 O   0  0  0  0  0  0  0  0  0  0  0  0
   27.0300   26.2200   34.8800 C   0  0  0  0  0  0  0  0  0  0  0  0
   27.3500   26.7300   36.0700 N   0  0  0  0  0  0  0  0  0  0  0  0
   28.5700   27.1800   36.3300 N   0  0  0  0  0  0  0  0  0  0  0  0
   29.5300   27.1100   35.3900 C   0  0  0  0  0  0  0  0  0  0  0  0
   30.8300   27.5700   35.6500 C   0  0  0  0  0  0  0  0  0  0  0  0
   31.8500   27.5400   34.6900 C   0  0  0  0  0  0  0  0  0  0  0  0
   31.5100   27.1200   33.4000 C   0  0  0  0  0  0  0  0  0  0  0  0
   30.2200   26.6300   33.1100 C   0  0  0  0  0  0  0  0  0  0  0  0
   29.2400   26.6600   34.1000 C   0  0  0  0  0  0  0  0  0  0  0  0
   27.9300   26.2600   33.8100 C   0  0  0  0  0  0  0  0  0  0  0  0
   27.5200   25.7100   32.6100 N   0  0  0  0  0  0  0  0  0  0  0  0
   23.4029   25.4857   35.6828 C   0  0  0  0  0  0  0  0  0  0  0  0
   23.2979   24.1453   35.4812 N   0  0  0  0  0  0  0  0  0  0  0  0
   22.1342   23.4724   35.6396 C   0  0  0  0  0  0  0  0  0  0  0  0
   20.9887   24.1387   36.0794 C   0  0  0  0  0  0  0  0  0  0  0  0
   19.6998   23.3750   36.1976 C   0  0  0  0  0  0  0  0  0  0  0  0
   18.8044   23.9726   37.2310 C   0  0  0  0  0  0  0  0  0  0  0  0
   17.9524   23.2398   37.8041 O   0  0  0  0  0  0  0  0  0  0  0  0
   18.8788   25.3767   37.5347 N   0  0  0  0  0  0  0  0  0  0  0  0
   19.8027   26.2553   36.8034 C   0  0  0  0  0  0  0  0  0  0  0  0
   21.0493   25.5268   36.3304 C   0  0  0  0  0  0  0  0  0  0  0  0
   22.2564   26.2268   36.0606 C   0  0  0  0  0  0  0  0  0  0  0  0
   22.3270   27.7339   36.1684 C   0  0  0  0  0  0  0  0  0  0  0  0
   17.8962   25.9616   38.4524 C   0  0  0  0  0  0  0  0  0  0  0  0
   24.8918   26.9442   36.1406 H   0  0  0  0  0  0  0  0  0  0  0  0
   31.0675   27.9411   36.6396 H   0  0  0  0  0  0  0  0  0  0  0  0
   32.8486   27.8873   34.9216 H   0  0  0  0  0  0  0  0  0  0  0  0
   32.2654   27.1203   32.6248 H   0  0  0  0  0  0  0  0  0  0  0  0
   30.0111   26.2782   32.1079 H   0  0  0  0  0  0  0  0  0  0  0  0
   27.6954   26.2243   31.7185 H   0  0  0  0  0  0  0  0  0  0  0  0
   27.3416   24.6831   32.5414 H   0  0  0  0  0  0  0  0  0  0  0  0
   22.1065   22.4110   35.4286 H   0  0  0  0  0  0  0  0  0  0  0  0
   19.1790   23.3869   35.2186 H   0  0  0  0  0  0  0  0  0  0  0  0
   19.9100   22.3190   36.4745 H   0  0  0  0  0  0  0  0  0  0  0  0
   20.1010   27.0863   37.4804 H   0  0  0  0  0  0  0  0  0  0  0  0
   19.2781   26.6805   35.9216 H   0  0  0  0  0  0  0  0  0  0  0  0
   22.5836   28.0255   37.2072 H   0  0  0  0  0  0  0  0  0  0  0  0
   21.3646   28.2070   35.8825 H   0  0  0  0  0  0  0  0  0  0  0  0
   23.0804   28.1548   35.4707 H   0  0  0  0  0  0  0  0  0  0  0  0
   18.0163   27.0637   38.5302 H   0  0  0  0  0  0  0  0  0  0  0  0
   18.0175   25.5147   39.4641 H   0  0  0  0  0  0  0  0  0  0  0  0
   16.8701   25.7432   38.0830 H   0  0  0  0  0  0  0  0  0  0  0  0
  1  2  1  0
  2  3  2  0
  2  4  1  0
  4  5  2  0
  5  6  1  0
  6  7  2  0
  7  8  1  0
  8  9  2  0
  9 10  1  0
 10 11  2  0
 11 12  1  0
 12 13  2  0
 13 14  1  0
  1 15  1  0
 15 16  2  0
 16 17  1  0
 17 18  2  0
 18 19  1  0
 19 20  1  0
 20 21  2  0
 20 22  1  0
 22 23  1  0
 23 24  1  0
 24 25  2  0
 25 26  1  0
 22 27  1  0
 13  4  1  0
 25 15  1  0
 12  7  1  0
 24 18  1  0
  1 28  1  0
  8 29  1  0
  9 30  1  0
 10 31  1  0
 11 32  1  0
 14 33  1  0
 14 34  1  0
 17 35  1  0
 19 36  1  0
 19 37  1  0
 23 38  1  0
 23 39  1  0
 26 40  1  0
 26 41  1  0
 26 42  1  0
 27 43  1  0
 27 44  1  0
 27 45  1  0
M  END
$$$$
confid_6
     RDKit          3D

 45 48  0  0  0  0  0  0  0  0999 V2000
   24.6900   26.1200   35.5300 N   0  0  0  0  0  0  0  0  0  0  0  0
   25.6600   25.6700   34.6600 C   0  0  0  0  0  0  0  0  0  0  0  0
   25.2400   25.0100   33.7200 O   0  0  0  0  0  0  0  0  0  0  0  0
   27.0300   26.2200   34.8800 C   0  0  0  0  0  0  0  0  0  0  0  0
   27.3500   26.7300   36.0700 N   0  0  0  0  0  0  0  0  0  0  0  0
   28.5700   27.1800   36.3300 N   0  0  0  0  0  0  0  0  0  0  0  0
   29.5300   27.1100   35.3900 C   0  0  0  0  0  0  0  0  0  0  0  0
   30.8300   27.5700   35.6500 C   0  0  0  0  0  0  0  0  0  0  0  0
   31.8500   27.5400   34.6900 C   0  0  0  0  0  0  0  0  0  0  0  0
   31.5100   27.1200   33.4000 C   0  0  0  0  0  0  0  0  0  0  0  0
   30.2200   26.6300   33.1100 C   0  0  0  0  0  0  0  0  0  0  0  0
   29.2400   26.6600   34.1000 C   0  0  0  0  0  0  0  0  0  0  0  0
   27.9300   26.2600   33.8100 C   0  0  0  0  0  0  0  0  0  0  0  0
   27.5200   25.7100   32.6100 N   0  0  0  0  0  0  0  0  0  0  0  0
   23.4746   25.4048   35.8495 C   0  0  0  0  0  0  0  0  0  0  0  0
   22.9507   24.5317   34.9471 N   0  0  0  0  0  0  0  0  0  0  0  0
   21.7884   23.8702   35.1573 C   0  0  0  0  0  0  0  0  0  0  0  0
   21.0415   24.1077   36.3131 C   0  0  0  0  0  0  0  0  0  0  0  0
   19.7744   23.3296   36.5467 C   0  0  0  0  0  0  0  0  0  0  0  0
   18.8006   24.1257   37.3544 C   0  0  0  0  0  0  0  0  0  0  0  0
   17.5649   23.9118   37.2201 O   0  0  0  0  0  0  0  0  0  0  0  0
   19.2738   25.0947   38.3050 N   0  0  0  0  0  0  0  0  0  0  0  0
   20.7156   25.2667   38.5342 C   0  0  0  0  0  0  0  0  0  0  0  0
   21.5315   25.0130   37.2776 C   0  0  0  0  0  0  0  0  0  0  0  0
   22.8030   25.6169   37.0804 C   0  0  0  0  0  0  0  0  0  0  0  0
   23.4381   26.4683   38.1584 C   0  0  0  0  0  0  0  0  0  0  0  0
   18.3114   25.8076   39.1492 C   0  0  0  0  0  0  0  0  0  0  0  0
   24.8468   27.0399   35.9999 H   0  0  0  0  0  0  0  0  0  0  0  0
   31.0673   27.9414   36.6394 H   0  0  0  0  0  0  0  0  0  0  0  0
   32.8486   27.8872   34.9214 H   0  0  0  0  0  0  0  0  0  0  0  0
   32.2655   27.1208   32.6250 H   0  0  0  0  0  0  0  0  0  0  0  0
   30.0115   26.2783   32.1079 H   0  0  0  0  0  0  0  0  0  0  0  0
   27.3401   24.6834   32.5419 H   0  0  0  0  0  0  0  0  0  0  0  0
   27.6983   26.2225   31.7182 H   0  0  0  0  0  0  0  0  0  0  0  0
   21.4382   23.1694   34.4099 H   0  0  0  0  0  0  0  0  0  0  0  0
   19.3046   23.0579   35.5754 H   0  0  0  0  0  0  0  0  0  0  0  0
   20.0189   22.3948   37.0942 H   0  0  0  0  0  0  0  0  0  0  0  0
   21.0443   24.5598   39.3259 H   0  0  0  0  0  0  0  0  0  0  0  0
   20.8936   26.3044   38.8889 H   0  0  0  0  0  0  0  0  0  0  0  0
   23.1492   26.1243   39.1726 H   0  0  0  0  0  0  0  0  0  0  0  0
   24.5448   26.3887   38.1337 H   0  0  0  0  0  0  0  0  0  0  0  0
   23.1372   27.5285   38.0253 H   0  0  0  0  0  0  0  0  0  0  0  0
   17.6839   25.0778   39.7035 H   0  0  0  0  0  0  0  0  0  0  0  0
   18.8245   26.4542   39.8927 H   0  0  0  0  0  0  0  0  0  0  0  0
   17.6597   26.4458   38.5155 H   0  0  0  0  0  0  0  0  0  0  0  0
  1  2  1  0
  2  3  2  0
  2  4  1  0
  4  5  2  0
  5  6  1  0
  6  7  2  0
  7  8  1  0
  8  9  2  0
  9 10  1  0
 10 11  2  0
 11 12  1  0
 12 13  2  0
 13 14  1  0
  1 15  1  0
 15 16  2  0
 16 17  1  0
 17 18  2  0
 18 19  1  0
 19 20  1  0
 20 21  2  0
 20 22  1  0
 22 23  1  0
 23 24  1  0
 24 25  2  0
 25 26  1  0
 22 27  1  0
 13  4  1  0
 25 15  1  0
 12  7  1  0
 24 18  1  0
  1 28  1  0
  8 29  1  0
  9 30  1  0
 10 31  1  0
 11 32  1  0
 14 33  1  0
 14 34  1  0
 17 35  1  0
 19 36  1  0
 19 37  1  0
 23 38  1  0
 23 39  1  0
 26 40  1  0
 26 41  1  0
 26 42  1  0
 27 43  1  0
 27 44  1  0
 27 45  1  0
M  END
$$$$
confid_7
     RDKit          3D

 45 48  0  0  0  0  0  0  0  0999 V2000
   24.6900   26.1200   35.5300 N   0  0  0  0  0  0  0  0  0  0  0  0
   25.6600   25.6700   34.6600 C   0  0  0  0  0  0  0  0  0  0  0  0
   25.2400   25.0100   33.7200 O   0  0  0  0  0  0  0  0  0  0  0  0
   27.0300   26.2200   34.8800 C   0  0  0  0  0  0  0  0  0  0  0  0
   27.3500   26.7300   36.0700 N   0  0  0  0  0  0  0  0  0  0  0  0
   28.5700   27.1800   36.3300 N   0  0  0  0  0  0  0  0  0  0  0  0
   29.5300   27.1100   35.3900 C   0  0  0  0  0  0  0  0  0  0  0  0
   30.8300   27.5700   35.6500 C   0  0  0  0  0  0  0  0  0  0  0  0
   31.8500   27.5400   34.6900 C   0  0  0  0  0  0  0  0  0  0  0  0
   31.5100   27.1200   33.4000 C   0  0  0  0  0  0  0  0  0  0  0  0
   30.2200   26.6300   33.1100 C   0  0  0  0  0  0  0  0  0  0  0  0
   29.2400   26.6600   34.1000 C   0  0  0  0  0  0  0  0  0  0  0  0
   27.9300   26.2600   33.8100 C   0  0  0  0  0  0  0  0  0  0  0  0
   27.5200   25.7100   32.6100 N   0  0  0  0  0  0  0  0  0  0  0  0
   23.2794   25.8432   35.3946 C   0  0  0  0  0  0  0  0  0  0  0  0
   22.7152   25.8357   34.1545 N   0  0  0  0  0  0  0  0  0  0  0  0
   21.3894   25.6393   33.9575 C   0  0  0  0  0  0  0  0  0  0  0  0
   20.5301   25.4849   35.0480 C   0  0  0  0  0  0  0  0  0  0  0  0
   19.0680   25.2175   34.8057 C   0  0  0  0  0  0  0  0  0  0  0  0
   18.2353   25.7681   35.9186 C   0  0  0  0  0  0  0  0  0  0  0  0
   17.0457   26.1177   35.6871 O   0  0  0  0  0  0  0  0  0  0  0  0
   18.7776   25.8598   37.2474 N   0  0  0  0  0  0  0  0  0  0  0  0
   20.1208   25.3337   37.5356 C   0  0  0  0  0  0  0  0  0  0  0  0
   21.0619   25.5070   36.3558 C   0  0  0  0  0  0  0  0  0  0  0  0
   22.4669   25.6262   36.5343 C   0  0  0  0  0  0  0  0  0  0  0  0
   23.0943   25.5258   37.9105 C   0  0  0  0  0  0  0  0  0  0  0  0
   17.9378   26.3619   38.3384 C   0  0  0  0  0  0  0  0  0  0  0  0
   24.9614   26.7038   36.3539 H   0  0  0  0  0  0  0  0  0  0  0  0
   31.0672   27.9418   36.6392 H   0  0  0  0  0  0  0  0  0  0  0  0
   32.8481   27.8890   34.9209 H   0  0  0  0  0  0  0  0  0  0  0  0
   32.2638   27.1268   32.6233 H   0  0  0  0  0  0  0  0  0  0  0  0
   30.0101   26.3036   32.1003 H   0  0  0  0  0  0  0  0  0  0  0  0
   26.6936   26.1024   32.1059 H   0  0  0  0  0  0  0  0  0  0  0  0
   28.1318   25.0440   32.0889 H   0  0  0  0  0  0  0  0  0  0  0  0
   21.0050   25.6113   32.9462 H   0  0  0  0  0  0  0  0  0  0  0  0
   18.7446   25.6811   33.8466 H   0  0  0  0  0  0  0  0  0  0  0  0
   18.9056   24.1202   34.7393 H   0  0  0  0  0  0  0  0  0  0  0  0
   20.0423   24.2505   37.7750 H   0  0  0  0  0  0  0  0  0  0  0  0
   20.5288   25.8633   38.4240 H   0  0  0  0  0  0  0  0  0  0  0  0
   24.1394   25.1572   37.8555 H   0  0  0  0  0  0  0  0  0  0  0  0
   22.5567   24.7889   38.5452 H   0  0  0  0  0  0  0  0  0  0  0  0
   23.0819   26.5243   38.4018 H   0  0  0  0  0  0  0  0  0  0  0  0
   17.6754   27.4273   38.1480 H   0  0  0  0  0  0  0  0  0  0  0  0
   18.4624   26.2967   39.3194 H   0  0  0  0  0  0  0  0  0  0  0  0
   17.0046   25.7575   38.4037 H   0  0  0  0  0  0  0  0  0  0  0  0
  1  2  1  0
  2  3  2  0
  2  4  1  0
  4  5  2  0
  5  6  1  0
  6  7  2  0
  7  8  1  0
  8  9  2  0
  9 10  1  0
 10 11  2  0
 11 12  1  0
 12 13  2  0
 13 14  1  0
  1 15  1  0
 15 16  2  0
 16 17  1  0
 17 18  2  0
 18 19  1  0
 19 20  1  0
 20 21  2  0
 20 22  1  0
 22 23  1  0
 23 24  1  0
 24 25  2  0
 25 26  1  0
 22 27  1  0
 13  4  1  0
 25 15  1  0
 12  7  1  0
 24 18  1  0
  1 28  1  0
  8 29  1  0
  9 30  1  0
 10 31  1  0
 11 32  1  0
 14 33  1  0
 14 34  1  0
 17 35  1  0
 19 36  1  0
 19 37  1  0
 23 38  1  0
 23 39  1  0
 26 40  1  0
 26 41  1  0
 26 42  1  0
 27 43  1  0
 27 44  1  0
 27 45  1  0
M  END
$$$$
