confid_0
     RDKit          3D

 40 43  0  0  0  0  0  0  0  0999 V2000
   24.5500   26.3900   36.2500 N   0  0  0  0  0  0  0  0  0  0  0  0
   25.6000   26.1300   35.4000 C   0  0  0  0  0  0  0  0  0  0  0  0
   25.4300   25.4300   34.4200 O   0  0  0  0  0  0  0  0  0  0  0  0
   26.9800   26.6300   35.7100 C   0  0  0  0  0  0  0  0  0  0  0  0
   27.3200   26.8200   36.9800 N   0  0  0  0  0  0  0  0  0  0  0  0
   28.4700   27.4000   37.3100 N   0  0  0  0  0  0  0  0  0  0  0  0
   29.4000   27.6300   36.3700 C   0  0  0  0  0  0  0  0  0  0  0  0
   30.6600   28.0500   36.8000 C   0  0  0  0  0  0  0  0  0  0  0  0
   31.5700   28.3600   35.7800 C   0  0  0  0  0  0  0  0  0  0  0  0
   31.3700   28.1000   34.4300 C   0  0  0  0  0  0  0  0  0  0  0  0
   30.1200   27.5900   34.0500 C   0  0  0  0  0  0  0  0  0  0  0  0
   29.1500   27.3400   35.0300 C   0  0  0  0  0  0  0  0  0  0  0  0
   27.8800   26.8900   34.6600 C   0  0  0  0  0  0  0  0  0  0  0  0
   27.4800   26.6100   33.3700 N   0  0  0  0  0  0  0  0  0  0  0  0
   30.9589   28.3209   38.1796 N   0  0  0  0  0  0  0  0  0  0  0  0
   30.3672   29.4977   38.8277 C   0  0  0  0  0  0  0  0  0  0  0  0
   30.1689   29.2511   40.3276 C   0  0  0  0  0  0  0  0  0  0  0  0
   31.4391   28.7559   40.9752 C   0  0  0  0  0  0  0  0  0  0  0  0
   31.6941   29.0363   42.3267 C   0  0  0  0  0  0  0  0  0  0  0  0
   32.8342   28.5222   42.9509 C   0  0  0  0  0  0  0  0  0  0  0  0
   33.7192   27.7108   42.2352 C   0  0  0  0  0  0  0  0  0  0  0  0
   34.8234   27.2099   42.8425 F   0  0  0  0  0  0  0  0  0  0  0  0
   33.4658   27.4101   40.8938 C   0  0  0  0  0  0  0  0  0  0  0  0
   32.3249   27.9269   40.2567 C   0  0  0  0  0  0  0  0  0  0  0  0
   32.0352   27.6288   38.8388 C   0  0  0  0  0  0  0  0  0  0  0  0
   32.7114   26.7627   38.2182 O   0  0  0  0  0  0  0  0  0  0  0  0
   33.0755   28.8049   44.2550 F   0  0  0  0  0  0  0  0  0  0  0  0
   23.6001   26.0039   36.0504 H   0  0  0  0  0  0  0  0  0  0  0  0
   24.6739   26.9932   37.0934 H   0  0  0  0  0  0  0  0  0  0  0  0
   32.5274   28.7765   36.0671 H   0  0  0  0  0  0  0  0  0  0  0  0
   32.1351   28.3159   33.6955 H   0  0  0  0  0  0  0  0  0  0  0  0
   29.9364   27.3926   33.0016 H   0  0  0  0  0  0  0  0  0  0  0  0
   27.4182   25.6173   33.0515 H   0  0  0  0  0  0  0  0  0  0  0  0
   27.5826   27.3394   32.6301 H   0  0  0  0  0  0  0  0  0  0  0  0
   29.3847   29.7461   38.3710 H   0  0  0  0  0  0  0  0  0  0  0  0
   31.0417   30.3693   38.6810 H   0  0  0  0  0  0  0  0  0  0  0  0
   29.3739   28.4881   40.4719 H   0  0  0  0  0  0  0  0  0  0  0  0
   29.8331   30.1980   40.8038 H   0  0  0  0  0  0  0  0  0  0  0  0
   31.0074   29.6495   42.8972 H   0  0  0  0  0  0  0  0  0  0  0  0
   34.1608   26.7784   40.3548 H   0  0  0  0  0  0  0  0  0  0  0  0
  1  2  1  0
  2  3  2  0
  2  4  1  0
  4  5  2  0
  5  6  1  0
  6  7  2  0
  7  8  1  0
  8  9  2  0
  9 10  1  0
 10 11  2  0
 11 12  1  0
 12 13  2  0
 13 14  1  0
  8 15  1  0
 15 16  1  0
 16 17  1  0
 17 18  1  0
 18 19  2  0
 19 20  1  0
 20 21  2  0
 21 22  1  0
 21 23  1  0
 23 24  2  0
 24 25  1  0
 25 26  2  0
 20 27  1  0
 13  4  1  0
 25 15  1  0
 12  7  1  0
 24 18  1  0
  1 28  1  0
  1 29  1  0
  9 30  1  0
 10 31  1  0
 11 32  1  0
 14 33  1  0
 14 34  1  0
 16 35  1  0
 16 36  1  0
 17 37  1  0
 17 38  1  0
 19 39  1  0
 23 40  1  0
M  END
$$$$
confid_1
     RDKit          3D

 40 43  0  0  0  0  0  0  0  0999 V2000
   24.5500   26.3900   36.2500 N   0  0  0  0  0  0  0  0  0  0  0  0
   25.6000   26.1300   35.4000 C   0  0  0  0  0  0  0  0  0  0  0  0
   25.4300   25.4300   34.4200 O   0  0  0  0  0  0  0  0  0  0  0  0
   26.9800   26.6300   35.7100 C   0  0  0  0  0  0  0  0  0  0  0  0
   27.3200   26.8200   36.9800 N   0  0  0  0  0  0  0  0  0  0  0  0
   28.4700   27.4000   37.3100 N   0  0  0  0  0  0  0  0  0  0  0  0
   29.4000   27.6300   36.3700 C   0  0  0  0  0  0  0  0  0  0  0  0
   30.6600   28.0500   36.8000 C   0  0  0  0  0  0  0  0  0  0  0  0
   31.5700   28.3600   35.7800 C   0  0  0  0  0  0  0  0  0  0  0  0
   31.3700   28.1000   34.4300 C   0  0  0  0  0  0  0  0  0  0  0  0
   30.1200   27.5900   34.0500 C   0  0  0  0  0  0  0  0  0  0  0  0
   29.1500   27.3400   35.0300 C   0  0  0  0  0  0  0  0  0  0  0  0
   27.8800   26.8900   34.6600 C   0  0  0  0  0  0  0  0  0  0  0  0
   27.4800   26.6100   33.3700 N   0  0  0  0  0  0  0  0  0  0  0  0
   30.9732   28.3080   38.1778 N   0  0  0  0  0  0  0  0  0  0  0  0
   31.8078   27.3466   38.9065 C   0  0  0  0  0  0  0  0  0  0  0  0
   32.6354   28.0471   39.9911 C   0  0  0  0  0  0  0  0  0  0  0  0
   31.7701   28.9204   40.8661 C   0  0  0  0  0  0  0  0  0  0  0  0
   32.1196   29.1389   42.2079 C   0  0  0  0  0  0  0  0  0  0  0  0
   31.3640   30.0071   43.0010 C   0  0  0  0  0  0  0  0  0  0  0  0
   30.2648   30.6767   42.4558 C   0  0  0  0  0  0  0  0  0  0  0  0
   29.5344   31.5216   43.2250 F   0  0  0  0  0  0  0  0  0  0  0  0
   29.9187   30.4806   41.1157 C   0  0  0  0  0  0  0  0  0  0  0  0
   30.6690   29.6046   40.3132 C   0  0  0  0  0  0  0  0  0  0  0  0
   30.3217   29.3719   38.8969 C   0  0  0  0  0  0  0  0  0  0  0  0
   29.4775   30.1099   38.3180 O   0  0  0  0  0  0  0  0  0  0  0  0
   31.7053   30.2061   44.2983 F   0  0  0  0  0  0  0  0  0  0  0  0
   24.6739   26.9932   37.0933 H   0  0  0  0  0  0  0  0  0  0  0  0
   23.6001   26.0040   36.0503 H   0  0  0  0  0  0  0  0  0  0  0  0
   32.5291   28.7712   36.0692 H   0  0  0  0  0  0  0  0  0  0  0  0
   32.1338   28.3198   33.6952 H   0  0  0  0  0  0  0  0  0  0  0  0
   29.9373   27.4179   32.9983 H   0  0  0  0  0  0  0  0  0  0  0  0
   26.5962   27.0149   32.9873 H   0  0  0  0  0  0  0  0  0  0  0  0
   28.1243   26.1387   32.6978 H   0  0  0  0  0  0  0  0  0  0  0  0
   31.1523   26.5811   39.3758 H   0  0  0  0  0  0  0  0  0  0  0  0
   32.5002   26.8272   38.2079 H   0  0  0  0  0  0  0  0  0  0  0  0
   33.1514   27.2741   40.6012 H   0  0  0  0  0  0  0  0  0  0  0  0
   33.4092   28.6823   39.5087 H   0  0  0  0  0  0  0  0  0  0  0  0
   32.9800   28.6406   42.6373 H   0  0  0  0  0  0  0  0  0  0  0  0
   29.0648   31.0077   40.7087 H   0  0  0  0  0  0  0  0  0  0  0  0
  1  2  1  0
  2  3  2  0
  2  4  1  0
  4  5  2  0
  5  6  1  0
  6  7  2  0
  7  8  1  0
  8  9  2  0
  9 10  1  0
 10 11  2  0
 11 12  1  0
 12 13  2  0
 13 14  1  0
  8 15  1  0
 15 16  1  0
 16 17  1  0
 17 18  1  0
 18 19  2  0
 19 20  1  0
 20 21  2  0
 21 22  1  0
 21 23  1  0
 23 24  2  0
 24 25  1  0
 25 26  2  0
 20 27  1  0
 13  4  1  0
 25 15  1  0
 12  7  1  0
 24 18  1  0
  1 28  1  0
  1 29  1  0
  9 30  1  0
 10 31  1  0
 11 32  1  0
 14 33  1  0
 14 34  1  0
 16 35  1  0
 16 36  1  0
 17 37  1  0
 17 38  1  0
 19 39  1  0
 23 40  1  0
M  END
$$$$
confid_2
     RDKit          3D

 40 43  0  0  0  0  0  0  0  0999 V2000
   24.5500   26.3900   36.2500 N   0  0  0  0  0  0  0  0  0  0  0  0
   25.6000   26.1300   35.4000 C   0  0  0  0  0  0  0  0  0  0  0  0
   25.4300   25.4300   34.4200 O   0  0  0  0  0  0  0  0  0  0  0  0
   26.9800   26.6300   35.7100 C   0  0  0  0  0  0  0  0  0  0  0  0
   27.3200   26.8200   36.9800 N   0  0  0  0  0  0  0  0  0  0  0  0
   28.4700   27.4000   37.3100 N   0  0  0  0  0  0  0  0  0  0  0  0
   29.4000   27.6300   36.3700 C   0  0  0  0  0  0  0  0  0  0  0  0
   30.6600   28.0500   36.8000 C   0  0  0  0  0  0  0  0  0  0  0  0
   31.5700   28.3600   35.7800 C   0  0  0  0  0  0  0  0  0  0  0  0
   31.3700   28.1000   34.4300 C   0  0  0  0  0  0  0  0  0  0  0  0
   30.1200   27.5900   34.0500 C   0  0  0  0  0  0  0  0  0  0  0  0
   29.1500   27.3400   35.0300 C   0  0  0  0  0  0  0  0  0  0  0  0
   27.8800   26.8900   34.6600 C   0  0  0  0  0  0  0  0  0  0  0  0
   27.4800   26.6100   33.3700 N   0  0  0  0  0  0  0  0  0  0  0  0
   30.9678   28.2897   38.1868 N   0  0  0  0  0  0  0  0  0  0  0  0
   31.5422   29.5762   38.5988 C   0  0  0  0  0  0  0  0  0  0  0  0
   31.0417   29.9722   39.9929 C   0  0  0  0  0  0  0  0  0  0  0  0
   31.2348   28.8539   40.9879 C   0  0  0  0  0  0  0  0  0  0  0  0
   31.4182   29.1497   42.3478 C   0  0  0  0  0  0  0  0  0  0  0  0
   31.5293   28.1191   43.2853 C   0  0  0  0  0  0  0  0  0  0  0  0
   31.4417   26.7860   42.8747 C   0  0  0  0  0  0  0  0  0  0  0  0
   31.5466   25.7868   43.7855 F   0  0  0  0  0  0  0  0  0  0  0  0
   31.2411   26.4799   41.5257 C   0  0  0  0  0  0  0  0  0  0  0  0
   31.1326   27.5094   40.5752 C   0  0  0  0  0  0  0  0  0  0  0  0
   30.9269   27.2130   39.1423 C   0  0  0  0  0  0  0  0  0  0  0  0
   30.7284   26.0273   38.7583 O   0  0  0  0  0  0  0  0  0  0  0  0
   31.7137   28.4154   44.5957 F   0  0  0  0  0  0  0  0  0  0  0  0
   23.6001   26.0040   36.0503 H   0  0  0  0  0  0  0  0  0  0  0  0
   24.6739   26.9931   37.0934 H   0  0  0  0  0  0  0  0  0  0  0  0
   32.5346   28.7612   36.0640 H   0  0  0  0  0  0  0  0  0  0  0  0
   32.1346   28.3175   33.6954 H   0  0  0  0  0  0  0  0  0  0  0  0
   29.9375   27.4174   32.9983 H   0  0  0  0  0  0  0  0  0  0  0  0
   26.5962   27.0149   32.9873 H   0  0  0  0  0  0  0  0  0  0  0  0
   28.1242   26.1386   32.6978 H   0  0  0  0  0  0  0  0  0  0  0  0
   31.2577   30.3752   37.8791 H   0  0  0  0  0  0  0  0  0  0  0  0
   32.6510   29.4949   38.6096 H   0  0  0  0  0  0  0  0  0  0  0  0
   29.9589   30.2162   39.9379 H   0  0  0  0  0  0  0  0  0  0  0  0
   31.5872   30.8834   40.3221 H   0  0  0  0  0  0  0  0  0  0  0  0
   31.4710   30.1787   42.6814 H   0  0  0  0  0  0  0  0  0  0  0  0
   31.1732   25.4416   41.2258 H   0  0  0  0  0  0  0  0  0  0  0  0
  1  2  1  0
  2  3  2  0
  2  4  1  0
  4  5  2  0
  5  6  1  0
  6  7  2  0
  7  8  1  0
  8  9  2  0
  9 10  1  0
 10 11  2  0
 11 12  1  0
 12 13  2  0
 13 14  1  0
  8 15  1  0
 15 16  1  0
 16 17  1  0
 17 18  1  0
 18 19  2  0
 19 20  1  0
 20 21  2  0
 21 22  1  0
 21 23  1  0
 23 24  2  0
 24 25  1  0
 25 26  2  0
 20 27  1  0
 13  4  1  0
 25 15  1  0
 12  7  1  0
 24 18  1  0
  1 28  1  0
  1 29  1  0
  9 30  1  0
 10 31  1  0
 11 32  1  0
 14 33  1  0
 14 34  1  0
 16 35  1  0
 16 36  1  0
 17 37  1  0
 17 38  1  0
 19 39  1  0
 23 40  1  0
M  END
$$$$
confid_3
     RDKit          3D

 40 43  0  0  0  0  0  0  0  0999 V2000
   24.5500   26.3900   36.2500 N   0  0  0  0  0  0  0  0  0  0  0  0
   25.6000   26.1300   35.4000 C   0  0  0  0  0  0  0  0  0  0  0  0
   25.4300   25.4300   34.4200 O   0  0  0  0  0  0  0  0  0  0  0  0
   26.9800   26.6300   35.7100 C   0  0  0  0  0  0  0  0  0  0  0  0
   27.3200   26.8200   36.9800 N   0  0  0  0  0  0  0  0  0  0  0  0
   28.4700   27.4000   37.3100 N   0  0  0  0  0  0  0  0  0  0  0  0
   29.4000   27.6300   36.3700 C   0  0  0  0  0  0  0  0  0  0  0  0
   30.6600   28.0500   36.8000 C   0  0  0  0  0  0  0  0  0  0  0  0
   31.5700   28.3600   35.7800 C   0  0  0  0  0  0  0  0  0  0  0  0
   31.3700   28.1000   34.4300 C   0  0  0  0  0  0  0  0  0  0  0  0
   30.1200   27.5900   34.0500 C   0  0  0  0  0  0  0  0  0  0  0  0
   29.1500   27.3400   35.0300 C   0  0  0  0  0  0  0  0  0  0  0  0
   27.8800   26.8900   34.6600 C   0  0  0  0  0  0  0  0  0  0  0  0
   27.4800   26.6100   33.3700 N   0  0  0  0  0  0  0  0  0  0  0  0
   30.9681   28.3092   38.1796 N   0  0  0  0  0  0  0  0  0  0  0  0
   31.0225   29.6978   38.6521 C   0  0  0  0  0  0  0  0  0  0  0  0
   32.0181   29.8464   39.8089 C   0  0  0  0  0  0  0  0  0  0  0  0
   31.7619   28.8252   40.8897 C   0  0  0  0  0  0  0  0  0  0  0  0
   32.0711   29.1221   42.2263 C   0  0  0  0  0  0  0  0  0  0  0  0
   31.9057   28.1535   43.2204 C   0  0  0  0  0  0  0  0  0  0  0  0
   31.4469   26.8764   42.8849 C   0  0  0  0  0  0  0  0  0  0  0  0
   31.2899   25.9362   43.8495 F   0  0  0  0  0  0  0  0  0  0  0  0
   31.1532   26.5643   41.5544 C   0  0  0  0  0  0  0  0  0  0  0  0
   31.3107   27.5340   40.5497 C   0  0  0  0  0  0  0  0  0  0  0  0
   31.0011   27.2343   39.1371 C   0  0  0  0  0  0  0  0  0  0  0  0
   30.7872   26.0461   38.7698 O   0  0  0  0  0  0  0  0  0  0  0  0
   32.2003   28.4522   44.5100 F   0  0  0  0  0  0  0  0  0  0  0  0
   23.6001   26.0039   36.0504 H   0  0  0  0  0  0  0  0  0  0  0  0
   24.6740   26.9931   37.0934 H   0  0  0  0  0  0  0  0  0  0  0  0
   32.5310   28.7672   36.0686 H   0  0  0  0  0  0  0  0  0  0  0  0
   32.1360   28.3138   33.6957 H   0  0  0  0  0  0  0  0  0  0  0  0
   29.9366   27.3921   33.0017 H   0  0  0  0  0  0  0  0  0  0  0  0
   27.4182   25.6173   33.0515 H   0  0  0  0  0  0  0  0  0  0  0  0
   27.5827   27.3393   32.6301 H   0  0  0  0  0  0  0  0  0  0  0  0
   30.0094   30.0038   38.9928 H   0  0  0  0  0  0  0  0  0  0  0  0
   31.3283   30.3784   37.8276 H   0  0  0  0  0  0  0  0  0  0  0  0
   31.9371   30.8765   40.2193 H   0  0  0  0  0  0  0  0  0  0  0  0
   33.0511   29.7060   39.4239 H   0  0  0  0  0  0  0  0  0  0  0  0
   32.4449   30.1020   42.4968 H   0  0  0  0  0  0  0  0  0  0  0  0
   30.7998   25.5700   41.3114 H   0  0  0  0  0  0  0  0  0  0  0  0
  1  2  1  0
  2  3  2  0
  2  4  1  0
  4  5  2  0
  5  6  1  0
  6  7  2  0
  7  8  1  0
  8  9  2  0
  9 10  1  0
 10 11  2  0
 11 12  1  0
 12 13  2  0
 13 14  1  0
  8 15  1  0
 15 16  1  0
 16 17  1  0
 17 18  1  0
 18 19  2  0
 19 20  1  0
 20 21  2  0
 21 22  1  0
 21 23  1  0
 23 24  2  0
 24 25  1  0
 25 26  2  0
 20 27  1  0
 13  4  1  0
 25 15  1  0
 12  7  1  0
 24 18  1  0
  1 28  1  0
  1 29  1  0
  9 30  1  0
 10 31  1  0
 11 32  1  0
 14 33  1  0
 14 34  1  0
 16 35  1  0
 16 36  1  0
 17 37  1  0
 17 38  1  0
 19 39  1  0
 23 40  1  0
M  END
$$$$
confid_4
     RDKit          3D

 40 43  0  0  0  0  0  0  0  0999 V2000
   24.5500   26.3900   36.2500 N   0  0  0  0  0  0  0  0  0  0  0  0
   25.6000   26.1300   35.4000 C   0  0  0  0  0  0  0  0  0  0  0  0
   25.4300   25.4300   34.4200 O   0  0  0  0  0  0  0  0  0  0  0  0
   26.9800   26.6300   35.7100 C   0  0  0  0  0  0  0  0  0  0  0  0
   27.3200   26.8200   36.9800 N   0  0  0  0  0  0  0  0  0  0  0  0
   28.4700   27.4000   37.3100 N   0  0  0  0  0  0  0  0  0  0  0  0
   29.4000   27.6300   36.3700 C   0  0  0  0  0  0  0  0  0  0  0  0
   30.6600   28.0500   36.8000 C   0  0  0  0  0  0  0  0  0  0  0  0
   31.5700   28.3600   35.7800 C   0  0  0  0  0  0  0  0  0  0  0  0
   31.3700   28.1000   34.4300 C   0  0  0  0  0  0  0  0  0  0  0  0
   30.1200   27.5900   34.0500 C   0  0  0  0  0  0  0  0  0  0  0  0
   29.1500   27.3400   35.0300 C   0  0  0  0  0  0  0  0  0  0  0  0
   27.8800   26.8900   34.6600 C   0  0  0  0  0  0  0  0  0  0  0  0
   27.4800   26.6100   33.3700 N   0  0  0  0  0  0  0  0  0  0  0  0
   30.9798   28.3169   38.1794 N   0  0  0  0  0  0  0  0  0  0  0  0
   30.1323   29.2030   38.9888 C   0  0  0  0  0  0  0  0  0  0  0  0
   30.9881   30.0990   39.8919 C   0  0  0  0  0  0  0  0  0  0  0  0
   31.9804   29.2880   40.6888 C   0  0  0  0  0  0  0  0  0  0  0  0
   32.4066   29.7388   41.9479 C   0  0  0  0  0  0  0  0  0  0  0  0
   33.3776   29.0289   42.6598 C   0  0  0  0  0  0  0  0  0  0  0  0
   33.9423   27.8732   42.1127 C   0  0  0  0  0  0  0  0  0  0  0  0
   34.8867   27.1869   42.8026 F   0  0  0  0  0  0  0  0  0  0  0  0
   33.5386   27.4251   40.8517 C   0  0  0  0  0  0  0  0  0  0  0  0
   32.5590   28.1295   40.1313 C   0  0  0  0  0  0  0  0  0  0  0  0
   32.1101   27.6758   38.7987 C   0  0  0  0  0  0  0  0  0  0  0  0
   32.7092   26.7341   38.2099 O   0  0  0  0  0  0  0  0  0  0  0  0
   33.7774   29.4686   43.8787 F   0  0  0  0  0  0  0  0  0  0  0  0
   23.6001   26.0040   36.0503 H   0  0  0  0  0  0  0  0  0  0  0  0
   24.6739   26.9932   37.0933 H   0  0  0  0  0  0  0  0  0  0  0  0
   32.5278   28.7766   36.0659 H   0  0  0  0  0  0  0  0  0  0  0  0
   32.1333   28.3211   33.6950 H   0  0  0  0  0  0  0  0  0  0  0  0
   29.9372   27.4182   32.9982 H   0  0  0  0  0  0  0  0  0  0  0  0
   28.1243   26.1388   32.6978 H   0  0  0  0  0  0  0  0  0  0  0  0
   26.5962   27.0149   32.9873 H   0  0  0  0  0  0  0  0  0  0  0  0
   29.4547   28.5861   39.6183 H   0  0  0  0  0  0  0  0  0  0  0  0
   29.5089   29.8504   38.3335 H   0  0  0  0  0  0  0  0  0  0  0  0
   31.5454   30.8274   39.2644 H   0  0  0  0  0  0  0  0  0  0  0  0
   30.3159   30.6675   40.5710 H   0  0  0  0  0  0  0  0  0  0  0  0
   31.9896   30.6423   42.3754 H   0  0  0  0  0  0  0  0  0  0  0  0
   33.9880   26.5292   40.4419 H   0  0  0  0  0  0  0  0  0  0  0  0
  1  2  1  0
  2  3  2  0
  2  4  1  0
  4  5  2  0
  5  6  1  0
  6  7  2  0
  7  8  1  0
  8  9  2  0
  9 10  1  0
 10 11  2  0
 11 12  1  0
 12 13  2  0
 13 14  1  0
  8 15  1  0
 15 16  1  0
 16 17  1  0
 17 18  1  0
 18 19  2  0
 19 20  1  0
 20 21  2  0
 21 22  1  0
 21 23  1  0
 23 24  2  0
 24 25  1  0
 25 26  2  0
 20 27  1  0
 13  4  1  0
 25 15  1  0
 12  7  1  0
 24 18  1  0
  1 28  1  0
  1 29  1  0
  9 30  1  0
 10 31  1  0
 11 32  1  0
 14 33  1  0
 14 34  1  0
 16 35  1  0
 16 36  1  0
 17 37  1  0
 17 38  1  0
 19 39  1  0
 23 40  1  0
M  END
$$$$
confid_5
     RDKit          3D

 40 43  0  0  0  0  0  0  0  0999 V2000
   24.5500   26.3900   36.2500 N   0  0  0  0  0  0  0  0  0  0  0  0
   25.6000   26.1300   35.4000 C   0  0  0  0  0  0  0  0  0  0  0  0
   25.4300   25.4300   34.4200 O   0  0  0  0  0  0  0  0  0  0  0  0
   26.9800   26.6300   35.7100 C   0  0  0  0  0  0  0  0  0  0  0  0
   27.3200   26.8200   36.9800 N   0  0  0  0  0  0  0  0  0  0  0  0
   28.4700   27.4000   37.3100 N   0  0  0  0  0  0  0  0  0  0  0  0
   29.4000   27.6300   36.3700 C   0  0  0  0  0  0  0  0  0  0  0  0
   30.6600   28.0500   36.8000 C   0  0  0  0  0  0  0  0  0  0  0  0
   31.5700   28.3600   35.7800 C   0  0  0  0  0  0  0  0  0  0  0  0
   31.3700   28.1000   34.4300 C   0  0  0  0  0  0  0  0  0  0  0  0
   30.1200   27.5900   34.0500 C   0  0  0  0  0  0  0  0  0  0  0  0
   29.1500   27.3400   35.0300 C   0  0  0  0  0  0  0  0  0  0  0  0
   27.8800   26.8900   34.6600 C   0  0  0  0  0  0  0  0  0  0  0  0
   27.4800   26.6100   33.3700 N   0  0  0  0  0  0  0  0  0  0  0  0
   30.9713   28.3027   38.1827 N   0  0  0  0  0  0  0  0  0  0  0  0
   32.1873   27.7249   38.7657 C   0  0  0  0  0  0  0  0  0  0  0  0
   31.9674   27.3787   40.2430 C   0  0  0  0  0  0  0  0  0  0  0  0
   31.4024   28.5511   41.0078 C   0  0  0  0  0  0  0  0  0  0  0  0
   31.6643   28.6836   42.3805 C   0  0  0  0  0  0  0  0  0  0  0  0
   31.0908   29.7282   43.1108 C   0  0  0  0  0  0  0  0  0  0  0  0
   30.2387   30.6388   42.4799 C   0  0  0  0  0  0  0  0  0  0  0  0
   29.6805   31.6503   43.1899 F   0  0  0  0  0  0  0  0  0  0  0  0
   29.9563   30.5063   41.1174 C   0  0  0  0  0  0  0  0  0  0  0  0
   30.5315   29.4615   40.3739 C   0  0  0  0  0  0  0  0  0  0  0  0
   30.2547   29.3029   38.9311 C   0  0  0  0  0  0  0  0  0  0  0  0
   29.4093   30.0445   38.3583 O   0  0  0  0  0  0  0  0  0  0  0  0
   31.3562   29.8515   44.4349 F   0  0  0  0  0  0  0  0  0  0  0  0
   24.6739   26.9932   37.0933 H   0  0  0  0  0  0  0  0  0  0  0  0
   23.6001   26.0040   36.0503 H   0  0  0  0  0  0  0  0  0  0  0  0
   32.5285   28.7751   36.0650 H   0  0  0  0  0  0  0  0  0  0  0  0
   32.1334   28.3207   33.6950 H   0  0  0  0  0  0  0  0  0  0  0  0
   29.9372   27.4181   32.9983 H   0  0  0  0  0  0  0  0  0  0  0  0
   28.1243   26.1388   32.6978 H   0  0  0  0  0  0  0  0  0  0  0  0
   26.5962   27.0149   32.9873 H   0  0  0  0  0  0  0  0  0  0  0  0
   33.0201   28.4557   38.6736 H   0  0  0  0  0  0  0  0  0  0  0  0
   32.4747   26.7987   38.2208 H   0  0  0  0  0  0  0  0  0  0  0  0
   32.9374   27.0595   40.6827 H   0  0  0  0  0  0  0  0  0  0  0  0
   31.2553   26.5287   40.3182 H   0  0  0  0  0  0  0  0  0  0  0  0
   32.3098   27.9751   42.8850 H   0  0  0  0  0  0  0  0  0  0  0  0
   29.2919   31.2194   40.6455 H   0  0  0  0  0  0  0  0  0  0  0  0
  1  2  1  0
  2  3  2  0
  2  4  1  0
  4  5  2  0
  5  6  1  0
  6  7  2  0
  7  8  1  0
  8  9  2  0
  9 10  1  0
 10 11  2  0
 11 12  1  0
 12 13  2  0
 13 14  1  0
  8 15  1  0
 15 16  1  0
 16 17  1  0
 17 18  1  0
 18 19  2  0
 19 20  1  0
 20 21  2  0
 21 22  1  0
 21 23  1  0
 23 24  2  0
 24 25  1  0
 25 26  2  0
 20 27  1  0
 13  4  1  0
 25 15  1  0
 12  7  1  0
 24 18  1  0
  1 28  1  0
  1 29  1  0
  9 30  1  0
 10 31  1  0
 11 32  1  0
 14 33  1  0
 14 34  1  0
 16 35  1  0
 16 36  1  0
 17 37  1  0
 17 38  1  0
 19 39  1  0
 23 40  1  0
M  END
$$$$
confid_6
     RDKit          3D

 40 43  0  0  0  0  0  0  0  0999 V2000
   24.5500   26.3900   36.2500 N   0  0  0  0  0  0  0  0  0  0  0  0
   25.6000   26.1300   35.4000 C   0  0  0  0  0  0  0  0  0  0  0  0
   25.4300   25.4300   34.4200 O   0  0  0  0  0  0  0  0  0  0  0  0
   26.9800   26.6300   35.7100 C   0  0  0  0  0  0  0  0  0  0  0  0
   27.3200   26.8200   36.9800 N   0  0  0  0  0  0  0  0  0  0  0  0
   28.4700   27.4000   37.3100 N   0  0  0  0  0  0  0  0  0  0  0  0
   29.4000   27.6300   36.3700 C   0  0  0  0  0  0  0  0  0  0  0  0
   30.6600   28.0500   36.8000 C   0  0  0  0  0  0  0  0  0  0  0  0
   31.5700   28.3600   35.7800 C   0  0  0  0  0  0  0  0  0  0  0  0
   31.3700   28.1000   34.4300 C   0  0  0  0  0  0  0  0  0  0  0  0
   30.1200   27.5900   34.0500 C   0  0  0  0  0  0  0  0  0  0  0  0
   29.1500   27.3400   35.0300 C   0  0  0  0  0  0  0  0  0  0  0  0
   27.8800   26.8900   34.6600 C   0  0  0  0  0  0  0  0  0  0  0  0
   27.4800   26.6100   33.3700 N   0  0  0  0  0  0  0  0  0  0  0  0
   30.9652   28.2812   38.1859 N   0  0  0  0  0  0  0  0  0  0  0  0
   31.1629   27.1295   39.0742 C   0  0  0  0  0  0  0  0  0  0  0  0
   30.7281   27.4627   40.5060 C   0  0  0  0  0  0  0  0  0  0  0  0
   31.3686   28.7403   40.9905 C   0  0  0  0  0  0  0  0  0  0  0  0
   31.6334   28.9201   42.3572 C   0  0  0  0  0  0  0  0  0  0  0  0
   32.1601   30.1290   42.8205 C   0  0  0  0  0  0  0  0  0  0  0  0
   32.4105   31.1730   41.9254 C   0  0  0  0  0  0  0  0  0  0  0  0
   32.9184   32.3468   42.3762 F   0  0  0  0  0  0  0  0  0  0  0  0
   32.1335   31.0115   40.5648 C   0  0  0  0  0  0  0  0  0  0  0  0
   31.6094   29.7974   40.0894 C   0  0  0  0  0  0  0  0  0  0  0  0
   31.3115   29.5976   38.6563 C   0  0  0  0  0  0  0  0  0  0  0  0
   31.3365   30.5750   37.8585 O   0  0  0  0  0  0  0  0  0  0  0  0
   32.4194   30.2904   44.1417 F   0  0  0  0  0  0  0  0  0  0  0  0
   23.6001   26.0039   36.0504 H   0  0  0  0  0  0  0  0  0  0  0  0
   24.6739   26.9931   37.0934 H   0  0  0  0  0  0  0  0  0  0  0  0
   32.5349   28.7585   36.0673 H   0  0  0  0  0  0  0  0  0  0  0  0
   32.1367   28.3118   33.6959 H   0  0  0  0  0  0  0  0  0  0  0  0
   29.9368   27.3916   33.0017 H   0  0  0  0  0  0  0  0  0  0  0  0
   27.5827   27.3393   32.6300 H   0  0  0  0  0  0  0  0  0  0  0  0
   27.4182   25.6173   33.0515 H   0  0  0  0  0  0  0  0  0  0  0  0
   32.2386   26.8488   39.0689 H   0  0  0  0  0  0  0  0  0  0  0  0
   30.5790   26.2535   38.7162 H   0  0  0  0  0  0  0  0  0  0  0  0
   29.6238   27.5837   40.5353 H   0  0  0  0  0  0  0  0  0  0  0  0
   31.0028   26.6137   41.1693 H   0  0  0  0  0  0  0  0  0  0  0  0
   31.4273   28.1253   43.0635 H   0  0  0  0  0  0  0  0  0  0  0  0
   32.3317   31.8310   39.8853 H   0  0  0  0  0  0  0  0  0  0  0  0
  1  2  1  0
  2  3  2  0
  2  4  1  0
  4  5  2  0
  5  6  1  0
  6  7  2  0
  7  8  1  0
  8  9  2  0
  9 10  1  0
 10 11  2  0
 11 12  1  0
 12 13  2  0
 13 14  1  0
  8 15  1  0
 15 16  1  0
 16 17  1  0
 17 18  1  0
 18 19  2  0
 19 20  1  0
 20 21  2  0
 21 22  1  0
 21 23  1  0
 23 24  2  0
 24 25  1  0
 25 26  2  0
 20 27  1  0
 13  4  1  0
 25 15  1  0
 12  7  1  0
 24 18  1  0
  1 28  1  0
  1 29  1  0
  9 30  1  0
 10 31  1  0
 11 32  1  0
 14 33  1  0
 14 34  1  0
 16 35  1  0
 16 36  1  0
 17 37  1  0
 17 38  1  0
 19 39  1  0
 23 40  1  0
M  END
$$$$
confid_7
     RDKit          3D

 40 43  0  0  0  0  0  0  0  0999 V2000
   24.5500   26.3900   36.2500 N   0  0  0  0  0  0  0  0  0  0  0  0
   25.6000   26.1300   35.4000 C   0  0  0  0  0  0  0  0  0  0  0  0
   25.4300   25.4300   34.4200 O   0  0  0  0  0  0  0  0  0  0  0  0
   26.9800   26.6300   35.7100 C   0  0  0  0  0  0  0  0  0  0  0  0
   27.3200   26.8200   36.9800 N   0  0  0  0  0  0  0  0  0  0  0  0
   28.4700   27.4000   37.3100 N   0  0  0  0  0  0  0  0  0  0  0  0
   29.4000   27.6300   36.3700 C   0  0  0  0  0  0  0  0  0  0  0  0
   30.6600   28.0500   36.8000 C   0  0  0  0  0  0  0  0  0  0  0  0
   31.5700   28.3600   35.7800 C   0  0  0  0  0  0  0  0  0  0  0  0
   31.3700   28.1000   34.4300 C   0  0  0  0  0  0  0  0  0  0  0  0
   30.1200   27.5900   34.0500 C   0  0  0  0  0  0  0  0  0  0  0  0
   29.1500   27.3400   35.0300 C   0  0  0  0  0  0  0  0  0  0  0  0
   27.8800   26.8900   34.6600 C   0  0  0  0  0  0  0  0  0  0  0  0
   27.4800   26.6100   33.3700 N   0  0  0  0  0  0  0  0  0  0  0  0
   30.9834   28.2783   38.1855 N   0  0  0  0  0  0  0  0  0  0  0  0
   30.8152   27.2036   39.1721 C   0  0  0  0  0  0  0  0  0  0  0  0
   31.9730   27.2039   40.1769 C   0  0  0  0  0  0  0  0  0  0  0  0
   32.1795   28.5733   40.7773 C   0  0  0  0  0  0  0  0  0  0  0  0
   32.7053   28.7000   42.0726 C   0  0  0  0  0  0  0  0  0  0  0  0
   32.9629   29.9648   42.6088 C   0  0  0  0  0  0  0  0  0  0  0  0
   32.7130   31.1117   41.8500 C   0  0  0  0  0  0  0  0  0  0  0  0
   32.9661   32.3383   42.3700 F   0  0  0  0  0  0  0  0  0  0  0  0
   32.2064   30.9970   40.5523 C   0  0  0  0  0  0  0  0  0  0  0  0
   31.9397   29.7297   40.0067 C   0  0  0  0  0  0  0  0  0  0  0  0
   31.3996   29.5797   38.6394 C   0  0  0  0  0  0  0  0  0  0  0  0
   31.2976   30.5823   37.8800 O   0  0  0  0  0  0  0  0  0  0  0  0
   33.4639   30.0767   43.8639 F   0  0  0  0  0  0  0  0  0  0  0  0
   23.6001   26.0039   36.0504 H   0  0  0  0  0  0  0  0  0  0  0  0
   24.6739   26.9931   37.0934 H   0  0  0  0  0  0  0  0  0  0  0  0
   32.5358   28.7573   36.0665 H   0  0  0  0  0  0  0  0  0  0  0  0
   32.1368   28.3115   33.6960 H   0  0  0  0  0  0  0  0  0  0  0  0
   29.9368   27.3915   33.0017 H   0  0  0  0  0  0  0  0  0  0  0  0
   27.4181   25.6173   33.0515 H   0  0  0  0  0  0  0  0  0  0  0  0
   27.5828   27.3393   32.6300 H   0  0  0  0  0  0  0  0  0  0  0  0
   29.8565   27.3522   39.7150 H   0  0  0  0  0  0  0  0  0  0  0  0
   30.7804   26.2134   38.6664 H   0  0  0  0  0  0  0  0  0  0  0  0
   31.7548   26.4592   40.9732 H   0  0  0  0  0  0  0  0  0  0  0  0
   32.9077   26.8967   39.6601 H   0  0  0  0  0  0  0  0  0  0  0  0
   32.9191   27.8187   42.6647 H   0  0  0  0  0  0  0  0  0  0  0  0
   32.0210   31.8959   39.9776 H   0  0  0  0  0  0  0  0  0  0  0  0
  1  2  1  0
  2  3  2  0
  2  4  1  0
  4  5  2  0
  5  6  1  0
  6  7  2  0
  7  8  1  0
  8  9  2  0
  9 10  1  0
 10 11  2  0
 11 12  1  0
 12 13  2  0
 13 14  1  0
  8 15  1  0
 15 16  1  0
 16 17  1  0
 17 18  1  0
 18 19  2  0
 19 20  1  0
 20 21  2  0
 21 22  1  0
 21 23  1  0
 23 24  2  0
 24 25  1  0
 25 26  2  0
 20 27  1  0
 13  4  1  0
 25 15  1  0
 12  7  1  0
 24 18  1  0
  1 28  1  0
  1 29  1  0
  9 30  1  0
 10 31  1  0
 11 32  1  0
 14 33  1  0
 14 34  1  0
 16 35  1  0
 16 36  1  0
 17 37  1  0
 17 38  1  0
 19 39  1  0
 23 40  1  0
M  END
$$$$
