confid_0
     RDKit          3D

 42 45  0  0  0  0  0  0  0  0999 V2000
   24.6900   26.1200   35.5300 N   0  0  0  0  0  0  0  0  0  0  0  0
   25.6600   25.6700   34.6600 C   0  0  0  0  0  0  0  0  0  0  0  0
   25.2400   25.0100   33.7200 O   0  0  0  0  0  0  0  0  0  0  0  0
   27.0300   26.2200   34.8800 C   0  0  0  0  0  0  0  0  0  0  0  0
   27.3500   26.7300   36.0700 N   0  0  0  0  0  0  0  0  0  0  0  0
   28.5700   27.1800   36.3300 N   0  0  0  0  0  0  0  0  0  0  0  0
   29.5300   27.1100   35.3900 C   0  0  0  0  0  0  0  0  0  0  0  0
   30.8300   27.5700   35.6500 C   0  0  0  0  0  0  0  0  0  0  0  0
   31.8500   27.5400   34.6900 C   0  0  0  0  0  0  0  0  0  0  0  0
   31.5100   27.1200   33.4000 C   0  0  0  0  0  0  0  0  0  0  0  0
   30.2200   26.6300   33.1100 C   0  0  0  0  0  0  0  0  0  0  0  0
   29.2400   26.6600   34.1000 C   0  0  0  0  0  0  0  0  0  0  0  0
   27.9300   26.2600   33.8100 C   0  0  0  0  0  0  0  0  0  0  0  0
   27.5200   25.7100   32.6100 N   0  0  0  0  0  0  0  0  0  0  0  0
   23.5117   25.3579   35.8710 C   0  0  0  0  0  0  0  0  0  0  0  0
   23.4632   24.0305   35.5743 N   0  0  0  0  0  0  0  0  0  0  0  0
   22.4043   23.2482   35.8961 C   0  0  0  0  0  0  0  0  0  0  0  0
   21.2962   23.7952   36.5495 C   0  0  0  0  0  0  0  0  0  0  0  0
   20.1609   22.8992   36.9752 C   0  0  0  0  0  0  0  0  0  0  0  0
   18.8872   23.6276   36.9914 N   0  0  0  0  0  0  0  0  0  0  0  0
   17.6324   22.9221   36.7204 C   0  0  0  0  0  0  0  0  0  0  0  0
   18.8587   25.0079   37.3927 C   0  0  0  0  0  0  0  0  0  0  0  0
   17.7576   25.6002   37.5597 O   0  0  0  0  0  0  0  0  0  0  0  0
   20.1362   25.7503   37.6546 C   0  0  0  0  0  0  0  0  0  0  0  0
   21.2995   25.1656   36.8811 C   0  0  0  0  0  0  0  0  0  0  0  0
   22.4280   25.9533   36.5539 C   0  0  0  0  0  0  0  0  0  0  0  0
   22.4885   27.6625   37.0025 Cl  0  0  0  0  0  0  0  0  0  0  0  0
   24.8387   27.0432   35.9951 H   0  0  0  0  0  0  0  0  0  0  0  0
   31.0673   27.9417   36.6392 H   0  0  0  0  0  0  0  0  0  0  0  0
   32.8483   27.8885   34.9210 H   0  0  0  0  0  0  0  0  0  0  0  0
   32.2640   27.1263   32.6235 H   0  0  0  0  0  0  0  0  0  0  0  0
   30.0101   26.3033   32.1004 H   0  0  0  0  0  0  0  0  0  0  0  0
   26.6938   26.1024   32.1056 H   0  0  0  0  0  0  0  0  0  0  0  0
   28.1314   25.0432   32.0894 H   0  0  0  0  0  0  0  0  0  0  0  0
   22.4339   22.1938   35.6518 H   0  0  0  0  0  0  0  0  0  0  0  0
   20.0938   22.0283   36.2862 H   0  0  0  0  0  0  0  0  0  0  0  0
   20.3725   22.5172   37.9968 H   0  0  0  0  0  0  0  0  0  0  0  0
   17.8108   21.8522   36.4824 H   0  0  0  0  0  0  0  0  0  0  0  0
   17.1185   23.3937   35.8560 H   0  0  0  0  0  0  0  0  0  0  0  0
   16.9719   22.9732   37.6114 H   0  0  0  0  0  0  0  0  0  0  0  0
   19.9738   26.8113   37.3704 H   0  0  0  0  0  0  0  0  0  0  0  0
   20.3640   25.7047   38.7404 H   0  0  0  0  0  0  0  0  0  0  0  0
  1  2  1  0
  2  3  2  0
  2  4  1  0
  4  5  2  0
  5  6  1  0
  6  7  2  0
  7  8  1  0
  8  9  2  0
  9 10  1  0
 10 11  2  0
 11 12  1  0
 12 13  2  0
 13 14  1  0
  1 15  1  0
 15 16  2  0
 16 17  1  0
 17 18  2  0
 18 19  1  0
 19 20  1  0
 20 21  1  0
 20 22  1  0
 22 23  2  0
 22 24  1  0
 24 25  1  0
 25 26  2  0
 26 27  1  0
 13  4  1  0
 26 15  1  0
 12  7  1  0
 25 18  1  0
  1 28  1  0
  8 29  1  0
  9 30  1  0
 10 31  1  0
 11 32  1  0
 14 33  1  0
 14 34  1  0
 17 35  1  0
 19 36  1  0
 19 37  1  0
 21 38  1  0
 21 39  1  0
 21 40  1  0
 24 41  1  0
 24 42  1  0
M  END
$$$$
confid_1
     RDKit          3D

 42 45  0  0  0  0  0  0  0  0999 V2000
   24.6900   26.1200   35.5300 N   0  0  0  0  0  0  0  0  0  0  0  0
   25.6600   25.6700   34.6600 C   0  0  0  0  0  0  0  0  0  0  0  0
   25.2400   25.0100   33.7200 O   0  0  0  0  0  0  0  0  0  0  0  0
   27.0300   26.2200   34.8800 C   0  0  0  0  0  0  0  0  0  0  0  0
   27.3500   26.7300   36.0700 N   0  0  0  0  0  0  0  0  0  0  0  0
   28.5700   27.1800   36.3300 N   0  0  0  0  0  0  0  0  0  0  0  0
   29.5300   27.1100   35.3900 C   0  0  0  0  0  0  0  0  0  0  0  0
   30.8300   27.5700   35.6500 C   0  0  0  0  0  0  0  0  0  0  0  0
   31.8500   27.5400   34.6900 C   0  0  0  0  0  0  0  0  0  0  0  0
   31.5100   27.1200   33.4000 C   0  0  0  0  0  0  0  0  0  0  0  0
   30.2200   26.6300   33.1100 C   0  0  0  0  0  0  0  0  0  0  0  0
   29.2400   26.6600   34.1000 C   0  0  0  0  0  0  0  0  0  0  0  0
   27.9300   26.2600   33.8100 C   0  0  0  0  0  0  0  0  0  0  0  0
   27.5200   25.7100   32.6100 N   0  0  0  0  0  0  0  0  0  0  0  0
   23.3245   26.3801   35.1429 C   0  0  0  0  0  0  0  0  0  0  0  0
   23.0323   26.6308   33.8374 N   0  0  0  0  0  0  0  0  0  0  0  0
   21.7740   26.8990   33.4110 C   0  0  0  0  0  0  0  0  0  0  0  0
   20.7161   26.9515   34.3237 C   0  0  0  0  0  0  0  0  0  0  0  0
   19.3092   27.1747   33.8298 C   0  0  0  0  0  0  0  0  0  0  0  0
   18.4967   27.8699   34.8342 N   0  0  0  0  0  0  0  0  0  0  0  0
   17.3898   28.7330   34.4155 C   0  0  0  0  0  0  0  0  0  0  0  0
   18.7049   27.6013   36.2317 C   0  0  0  0  0  0  0  0  0  0  0  0
   17.9304   28.0935   37.0971 O   0  0  0  0  0  0  0  0  0  0  0  0
   19.8226   26.7028   36.6739 C   0  0  0  0  0  0  0  0  0  0  0  0
   20.9720   26.7109   35.6889 C   0  0  0  0  0  0  0  0  0  0  0  0
   22.2889   26.4036   36.1010 C   0  0  0  0  0  0  0  0  0  0  0  0
   22.6320   25.9902   37.7852 Cl  0  0  0  0  0  0  0  0  0  0  0  0
   24.9589   26.3021   36.5222 H   0  0  0  0  0  0  0  0  0  0  0  0
   31.0673   27.9414   36.6394 H   0  0  0  0  0  0  0  0  0  0  0  0
   32.8486   27.8873   34.9214 H   0  0  0  0  0  0  0  0  0  0  0  0
   32.2655   27.1208   32.6249 H   0  0  0  0  0  0  0  0  0  0  0  0
   30.0114   26.2784   32.1078 H   0  0  0  0  0  0  0  0  0  0  0  0
   27.6972   26.2231   31.7183 H   0  0  0  0  0  0  0  0  0  0  0  0
   27.3407   24.6833   32.5416 H   0  0  0  0  0  0  0  0  0  0  0  0
   21.5995   27.0677   32.3562 H   0  0  0  0  0  0  0  0  0  0  0  0
   18.8478   26.1883   33.6107 H   0  0  0  0  0  0  0  0  0  0  0  0
   19.3337   27.7640   32.8867 H   0  0  0  0  0  0  0  0  0  0  0  0
   17.3141   28.7873   33.3088 H   0  0  0  0  0  0  0  0  0  0  0  0
   17.5477   29.7594   34.8088 H   0  0  0  0  0  0  0  0  0  0  0  0
   16.4312   28.3330   34.8084 H   0  0  0  0  0  0  0  0  0  0  0  0
   19.4362   25.6665   36.7712 H   0  0  0  0  0  0  0  0  0  0  0  0
   20.1633   27.0501   37.6720 H   0  0  0  0  0  0  0  0  0  0  0  0
  1  2  1  0
  2  3  2  0
  2  4  1  0
  4  5  2  0
  5  6  1  0
  6  7  2  0
  7  8  1  0
  8  9  2  0
  9 10  1  0
 10 11  2  0
 11 12  1  0
 12 13  2  0
 13 14  1  0
  1 15  1  0
 15 16  2  0
 16 17  1  0
 17 18  2  0
 18 19  1  0
 19 20  1  0
 20 21  1  0
 20 22  1  0
 22 23  2  0
 22 24  1  0
 24 25  1  0
 25 26  2  0
 26 27  1  0
 13  4  1  0
 26 15  1  0
 12  7  1  0
 25 18  1  0
  1 28  1  0
  8 29  1  0
  9 30  1  0
 10 31  1  0
 11 32  1  0
 14 33  1  0
 14 34  1  0
 17 35  1  0
 19 36  1  0
 19 37  1  0
 21 38  1  0
 21 39  1  0
 21 40  1  0
 24 41  1  0
 24 42  1  0
M  END
$$$$
confid_2
     RDKit          3D

 42 45  0  0  0  0  0  0  0  0999 V2000
   24.6900   26.1200   35.5300 N   0  0  0  0  0  0  0  0  0  0  0  0
   25.6600   25.6700   34.6600 C   0  0  0  0  0  0  0  0  0  0  0  0
   25.2400   25.0100   33.7200 O   0  0  0  0  0  0  0  0  0  0  0  0
   27.0300   26.2200   34.8800 C   0  0  0  0  0  0  0  0  0  0  0  0
   27.3500   26.7300   36.0700 N   0  0  0  0  0  0  0  0  0  0  0  0
   28.5700   27.1800   36.3300 N   0  0  0  0  0  0  0  0  0  0  0  0
   29.5300   27.1100   35.3900 C   0  0  0  0  0  0  0  0  0  0  0  0
   30.8300   27.5700   35.6500 C   0  0  0  0  0  0  0  0  0  0  0  0
   31.8500   27.5400   34.6900 C   0  0  0  0  0  0  0  0  0  0  0  0
   31.5100   27.1200   33.4000 C   0  0  0  0  0  0  0  0  0  0  0  0
   30.2200   26.6300   33.1100 C   0  0  0  0  0  0  0  0  0  0  0  0
   29.2400   26.6600   34.1000 C   0  0  0  0  0  0  0  0  0  0  0  0
   27.9300   26.2600   33.8100 C   0  0  0  0  0  0  0  0  0  0  0  0
   27.5200   25.7100   32.6100 N   0  0  0  0  0  0  0  0  0  0  0  0
   23.5013   25.3683   35.8519 C   0  0  0  0  0  0  0  0  0  0  0  0
   23.4627   24.0318   35.5972 N   0  0  0  0  0  0  0  0  0  0  0  0
   22.3834   23.2653   35.8879 C   0  0  0  0  0  0  0  0  0  0  0  0
   21.2590   23.8321   36.4953 C   0  0  0  0  0  0  0  0  0  0  0  0
   20.0352   22.9878   36.7455 C   0  0  0  0  0  0  0  0  0  0  0  0
   19.2990   23.4560   37.9249 N   0  0  0  0  0  0  0  0  0  0  0  0
   18.5236   22.5109   38.7316 C   0  0  0  0  0  0  0  0  0  0  0  0
   19.2382   24.8631   38.2161 C   0  0  0  0  0  0  0  0  0  0  0  0
   18.5027   25.2896   39.1477 O   0  0  0  0  0  0  0  0  0  0  0  0
   20.0202   25.8435   37.3917 C   0  0  0  0  0  0  0  0  0  0  0  0
   21.2569   25.2105   36.7903 C   0  0  0  0  0  0  0  0  0  0  0  0
   22.3838   25.9922   36.4469 C   0  0  0  0  0  0  0  0  0  0  0  0
   22.3760   27.7415   36.7024 Cl  0  0  0  0  0  0  0  0  0  0  0  0
   24.8392   27.0376   36.0062 H   0  0  0  0  0  0  0  0  0  0  0  0
   31.0672   27.9417   36.6393 H   0  0  0  0  0  0  0  0  0  0  0  0
   32.8482   27.8885   34.9211 H   0  0  0  0  0  0  0  0  0  0  0  0
   32.2640   27.1263   32.6235 H   0  0  0  0  0  0  0  0  0  0  0  0
   30.0101   26.3033   32.1004 H   0  0  0  0  0  0  0  0  0  0  0  0
   26.6937   26.1024   32.1057 H   0  0  0  0  0  0  0  0  0  0  0  0
   28.1316   25.0435   32.0892 H   0  0  0  0  0  0  0  0  0  0  0  0
   22.4030   22.2116   35.6410 H   0  0  0  0  0  0  0  0  0  0  0  0
   19.3719   23.0499   35.8567 H   0  0  0  0  0  0  0  0  0  0  0  0
   20.3353   21.9255   36.8813 H   0  0  0  0  0  0  0  0  0  0  0  0
   18.6147   21.4748   38.3418 H   0  0  0  0  0  0  0  0  0  0  0  0
   18.8898   22.5271   39.7797 H   0  0  0  0  0  0  0  0  0  0  0  0
   17.4497   22.7935   38.7139 H   0  0  0  0  0  0  0  0  0  0  0  0
   20.2989   26.6939   38.0490 H   0  0  0  0  0  0  0  0  0  0  0  0
   19.3737   26.2245   36.5734 H   0  0  0  0  0  0  0  0  0  0  0  0
  1  2  1  0
  2  3  2  0
  2  4  1  0
  4  5  2  0
  5  6  1  0
  6  7  2  0
  7  8  1  0
  8  9  2  0
  9 10  1  0
 10 11  2  0
 11 12  1  0
 12 13  2  0
 13 14  1  0
  1 15  1  0
 15 16  2  0
 16 17  1  0
 17 18  2  0
 18 19  1  0
 19 20  1  0
 20 21  1  0
 20 22  1  0
 22 23  2  0
 22 24  1  0
 24 25  1  0
 25 26  2  0
 26 27  1  0
 13  4  1  0
 26 15  1  0
 12  7  1  0
 25 18  1  0
  1 28  1  0
  8 29  1  0
  9 30  1  0
 10 31  1  0
 11 32  1  0
 14 33  1  0
 14 34  1  0
 17 35  1  0
 19 36  1  0
 19 37  1  0
 21 38  1  0
 21 39  1  0
 21 40  1  0
 24 41  1  0
 24 42  1  0
M  END
$$$$
confid_3
     RDKit          3D

 42 45  0  0  0  0  0  0  0  0999 V2000
   24.6900   26.1200   35.5300 N   0  0  0  0  0  0  0  0  0  0  0  0
   25.6600   25.6700   34.6600 C   0  0  0  0  0  0  0  0  0  0  0  0
   25.2400   25.0100   33.7200 O   0  0  0  0  0  0  0  0  0  0  0  0
   27.0300   26.2200   34.8800 C   0  0  0  0  0  0  0  0  0  0  0  0
   27.3500   26.7300   36.0700 N   0  0  0  0  0  0  0  0  0  0  0  0
   28.5700   27.1800   36.3300 N   0  0  0  0  0  0  0  0  0  0  0  0
   29.5300   27.1100   35.3900 C   0  0  0  0  0  0  0  0  0  0  0  0
   30.8300   27.5700   35.6500 C   0  0  0  0  0  0  0  0  0  0  0  0
   31.8500   27.5400   34.6900 C   0  0  0  0  0  0  0  0  0  0  0  0
   31.5100   27.1200   33.4000 C   0  0  0  0  0  0  0  0  0  0  0  0
   30.2200   26.6300   33.1100 C   0  0  0  0  0  0  0  0  0  0  0  0
   29.2400   26.6600   34.1000 C   0  0  0  0  0  0  0  0  0  0  0  0
   27.9300   26.2600   33.8100 C   0  0  0  0  0  0  0  0  0  0  0  0
   27.5200   25.7100   32.6100 N   0  0  0  0  0  0  0  0  0  0  0  0
   23.2977   26.2630   35.1782 C   0  0  0  0  0  0  0  0  0  0  0  0
   22.9540   26.4985   33.8822 N   0  0  0  0  0  0  0  0  0  0  0  0
   21.6682   26.6763   33.4899 C   0  0  0  0  0  0  0  0  0  0  0  0
   20.6300   26.6087   34.4241 C   0  0  0  0  0  0  0  0  0  0  0  0
   19.2128   26.8920   33.9939 C   0  0  0  0  0  0  0  0  0  0  0  0
   18.2513   26.1339   34.8014 N   0  0  0  0  0  0  0  0  0  0  0  0
   16.9651   25.7313   34.2279 C   0  0  0  0  0  0  0  0  0  0  0  0
   18.5173   25.9014   36.1958 C   0  0  0  0  0  0  0  0  0  0  0  0
   17.6439   25.3625   36.9292 O   0  0  0  0  0  0  0  0  0  0  0  0
   19.8225   26.3295   36.8021 C   0  0  0  0  0  0  0  0  0  0  0  0
   20.9364   26.3579   35.7774 C   0  0  0  0  0  0  0  0  0  0  0  0
   22.2889   26.2096   36.1636 C   0  0  0  0  0  0  0  0  0  0  0  0
   22.7195   25.9537   37.8604 Cl  0  0  0  0  0  0  0  0  0  0  0  0
   24.9684   26.3646   36.5057 H   0  0  0  0  0  0  0  0  0  0  0  0
   31.0672   27.9416   36.6393 H   0  0  0  0  0  0  0  0  0  0  0  0
   32.8482   27.8886   34.9211 H   0  0  0  0  0  0  0  0  0  0  0  0
   32.2639   27.1263   32.6235 H   0  0  0  0  0  0  0  0  0  0  0  0
   30.0100   26.3033   32.1004 H   0  0  0  0  0  0  0  0  0  0  0  0
   28.1316   25.0436   32.0890 H   0  0  0  0  0  0  0  0  0  0  0  0
   26.6932   26.1019   32.1060 H   0  0  0  0  0  0  0  0  0  0  0  0
   21.4588   26.8776   32.4497 H   0  0  0  0  0  0  0  0  0  0  0  0
   19.0898   26.6381   32.9182 H   0  0  0  0  0  0  0  0  0  0  0  0
   19.0138   27.9785   34.1192 H   0  0  0  0  0  0  0  0  0  0  0  0
   16.8590   24.6275   34.2874 H   0  0  0  0  0  0  0  0  0  0  0  0
   16.1353   26.2107   34.7898 H   0  0  0  0  0  0  0  0  0  0  0  0
   16.8831   26.0358   33.1631 H   0  0  0  0  0  0  0  0  0  0  0  0
   19.7041   27.3446   37.2378 H   0  0  0  0  0  0  0  0  0  0  0  0
   20.0652   25.6176   37.6203 H   0  0  0  0  0  0  0  0  0  0  0  0
  1  2  1  0
  2  3  2  0
  2  4  1  0
  4  5  2  0
  5  6  1  0
  6  7  2  0
  7  8  1  0
  8  9  2  0
  9 10  1  0
 10 11  2  0
 11 12  1  0
 12 13  2  0
 13 14  1  0
  1 15  1  0
 15 16  2  0
 16 17  1  0
 17 18  2  0
 18 19  1  0
 19 20  1  0
 20 21  1  0
 20 22  1  0
 22 23  2  0
 22 24  1  0
 24 25  1  0
 25 26  2  0
 26 27  1  0
 13  4  1  0
 26 15  1  0
 12  7  1  0
 25 18  1  0
  1 28  1  0
  8 29  1  0
  9 30  1  0
 10 31  1  0
 11 32  1  0
 14 33  1  0
 14 34  1  0
 17 35  1  0
 19 36  1  0
 19 37  1  0
 21 38  1  0
 21 39  1  0
 21 40  1  0
 24 41  1  0
 24 42  1  0
M  END
$$$$
confid_4
     RDKit          3D

 42 45  0  0  0  0  0  0  0  0999 V2000
   24.6900   26.1200   35.5300 N   0  0  0  0  0  0  0  0  0  0  0  0
   25.6600   25.6700   34.6600 C   0  0  0  0  0  0  0  0  0  0  0  0
   25.2400   25.0100   33.7200 O   0  0  0  0  0  0  0  0  0  0  0  0
   27.0300   26.2200   34.8800 C   0  0  0  0  0  0  0  0  0  0  0  0
   27.3500   26.7300   36.0700 N   0  0  0  0  0  0  0  0  0  0  0  0
   28.5700   27.1800   36.3300 N   0  0  0  0  0  0  0  0  0  0  0  0
   29.5300   27.1100   35.3900 C   0  0  0  0  0  0  0  0  0  0  0  0
   30.8300   27.5700   35.6500 C   0  0  0  0  0  0  0  0  0  0  0  0
   31.8500   27.5400   34.6900 C   0  0  0  0  0  0  0  0  0  0  0  0
   31.5100   27.1200   33.4000 C   0  0  0  0  0  0  0  0  0  0  0  0
   30.2200   26.6300   33.1100 C   0  0  0  0  0  0  0  0  0  0  0  0
   29.2400   26.6600   34.1000 C   0  0  0  0  0  0  0  0  0  0  0  0
   27.9300   26.2600   33.8100 C   0  0  0  0  0  0  0  0  0  0  0  0
   27.5200   25.7100   32.6100 N   0  0  0  0  0  0  0  0  0  0  0  0
   23.3350   26.4195   35.1327 C   0  0  0  0  0  0  0  0  0  0  0  0
   23.0587   26.6622   33.8222 N   0  0  0  0  0  0  0  0  0  0  0  0
   21.8165   26.9834   33.3857 C   0  0  0  0  0  0  0  0  0  0  0  0
   20.7517   27.0658   34.2876 C   0  0  0  0  0  0  0  0  0  0  0  0
   19.3921   27.5030   33.8048 C   0  0  0  0  0  0  0  0  0  0  0  0
   18.3231   26.8951   34.6044 N   0  0  0  0  0  0  0  0  0  0  0  0
   17.0144   26.6299   34.0024 C   0  0  0  0  0  0  0  0  0  0  0  0
   18.5196   26.6790   36.0126 C   0  0  0  0  0  0  0  0  0  0  0  0
   17.5657   26.2806   36.7351 O   0  0  0  0  0  0  0  0  0  0  0  0
   19.8506   26.9614   36.6459 C   0  0  0  0  0  0  0  0  0  0  0  0
   20.9866   26.8179   35.6553 C   0  0  0  0  0  0  0  0  0  0  0  0
   22.2984   26.5131   36.0869 C   0  0  0  0  0  0  0  0  0  0  0  0
   22.6410   26.2455   37.8008 Cl  0  0  0  0  0  0  0  0  0  0  0  0
   24.9574   26.2747   36.5270 H   0  0  0  0  0  0  0  0  0  0  0  0
   31.0672   27.9417   36.6393 H   0  0  0  0  0  0  0  0  0  0  0  0
   32.8482   27.8886   34.9211 H   0  0  0  0  0  0  0  0  0  0  0  0
   32.2640   27.1263   32.6235 H   0  0  0  0  0  0  0  0  0  0  0  0
   30.0101   26.3034   32.1004 H   0  0  0  0  0  0  0  0  0  0  0  0
   26.6932   26.1020   32.1061 H   0  0  0  0  0  0  0  0  0  0  0  0
   28.1317   25.0439   32.0889 H   0  0  0  0  0  0  0  0  0  0  0  0
   21.6631   27.1840   32.3332 H   0  0  0  0  0  0  0  0  0  0  0  0
   19.3228   28.6083   33.8886 H   0  0  0  0  0  0  0  0  0  0  0  0
   19.2694   27.2276   32.7341 H   0  0  0  0  0  0  0  0  0  0  0  0
   16.7781   25.5483   34.0851 H   0  0  0  0  0  0  0  0  0  0  0  0
   16.9968   26.9138   32.9288 H   0  0  0  0  0  0  0  0  0  0  0  0
   16.2323   27.2176   34.5281 H   0  0  0  0  0  0  0  0  0  0  0  0
   19.9796   26.2549   37.4926 H   0  0  0  0  0  0  0  0  0  0  0  0
   19.8478   27.9972   37.0460 H   0  0  0  0  0  0  0  0  0  0  0  0
  1  2  1  0
  2  3  2  0
  2  4  1  0
  4  5  2  0
  5  6  1  0
  6  7  2  0
  7  8  1  0
  8  9  2  0
  9 10  1  0
 10 11  2  0
 11 12  1  0
 12 13  2  0
 13 14  1  0
  1 15  1  0
 15 16  2  0
 16 17  1  0
 17 18  2  0
 18 19  1  0
 19 20  1  0
 20 21  1  0
 20 22  1  0
 22 23  2  0
 22 24  1  0
 24 25  1  0
 25 26  2  0
 26 27  1  0
 13  4  1  0
 26 15  1  0
 12  7  1  0
 25 18  1  0
  1 28  1  0
  8 29  1  0
  9 30  1  0
 10 31  1  0
 11 32  1  0
 14 33  1  0
 14 34  1  0
 17 35  1  0
 19 36  1  0
 19 37  1  0
 21 38  1  0
 21 39  1  0
 21 40  1  0
 24 41  1  0
 24 42  1  0
M  END
$$$$
confid_5
     RDKit          3D

 42 45  0  0  0  0  0  0  0  0999 V2000
   24.6900   26.1200   35.5300 N   0  0  0  0  0  0  0  0  0  0  0  0
   25.6600   25.6700   34.6600 C   0  0  0  0  0  0  0  0  0  0  0  0
   25.2400   25.0100   33.7200 O   0  0  0  0  0  0  0  0  0  0  0  0
   27.0300   26.2200   34.8800 C   0  0  0  0  0  0  0  0  0  0  0  0
   27.3500   26.7300   36.0700 N   0  0  0  0  0  0  0  0  0  0  0  0
   28.5700   27.1800   36.3300 N   0  0  0  0  0  0  0  0  0  0  0  0
   29.5300   27.1100   35.3900 C   0  0  0  0  0  0  0  0  0  0  0  0
   30.8300   27.5700   35.6500 C   0  0  0  0  0  0  0  0  0  0  0  0
   31.8500   27.5400   34.6900 C   0  0  0  0  0  0  0  0  0  0  0  0
   31.5100   27.1200   33.4000 C   0  0  0  0  0  0  0  0  0  0  0  0
   30.2200   26.6300   33.1100 C   0  0  0  0  0  0  0  0  0  0  0  0
   29.2400   26.6600   34.1000 C   0  0  0  0  0  0  0  0  0  0  0  0
   27.9300   26.2600   33.8100 C   0  0  0  0  0  0  0  0  0  0  0  0
   27.5200   25.7100   32.6100 N   0  0  0  0  0  0  0  0  0  0  0  0
   23.5443   25.3340   35.9240 C   0  0  0  0  0  0  0  0  0  0  0  0
   23.4528   24.0346   35.5245 N   0  0  0  0  0  0  0  0  0  0  0  0
   22.4068   23.2407   35.8576 C   0  0  0  0  0  0  0  0  0  0  0  0
   21.3770   23.7343   36.6670 C   0  0  0  0  0  0  0  0  0  0  0  0
   20.1777   22.8711   36.9674 C   0  0  0  0  0  0  0  0  0  0  0  0
   19.6186   23.1792   38.2912 N   0  0  0  0  0  0  0  0  0  0  0  0
   18.9081   22.1412   39.0426 C   0  0  0  0  0  0  0  0  0  0  0  0
   19.6714   24.5264   38.7978 C   0  0  0  0  0  0  0  0  0  0  0  0
   19.1472   24.8093   39.9095 O   0  0  0  0  0  0  0  0  0  0  0  0
   20.3105   25.6131   37.9828 C   0  0  0  0  0  0  0  0  0  0  0  0
   21.4370   25.0674   37.1265 C   0  0  0  0  0  0  0  0  0  0  0  0
   22.5193   25.8858   36.7295 C   0  0  0  0  0  0  0  0  0  0  0  0
   22.5683   27.5922   37.2026 Cl  0  0  0  0  0  0  0  0  0  0  0  0
   24.8229   27.0618   35.9581 H   0  0  0  0  0  0  0  0  0  0  0  0
   31.0672   27.9420   36.6392 H   0  0  0  0  0  0  0  0  0  0  0  0
   32.8481   27.8886   34.9210 H   0  0  0  0  0  0  0  0  0  0  0  0
   32.2640   27.1264   32.6236 H   0  0  0  0  0  0  0  0  0  0  0  0
   30.0101   26.3032   32.1003 H   0  0  0  0  0  0  0  0  0  0  0  0
   28.1320   25.0443   32.0887 H   0  0  0  0  0  0  0  0  0  0  0  0
   26.6928   26.1011   32.1064 H   0  0  0  0  0  0  0  0  0  0  0  0
   22.3784   22.2213   35.4856 H   0  0  0  0  0  0  0  0  0  0  0  0
   19.4020   23.0545   36.1929 H   0  0  0  0  0  0  0  0  0  0  0  0
   20.4696   21.7971   36.9210 H   0  0  0  0  0  0  0  0  0  0  0  0
   19.4603   21.9149   39.9814 H   0  0  0  0  0  0  0  0  0  0  0  0
   17.8830   22.4907   39.2927 H   0  0  0  0  0  0  0  0  0  0  0  0
   18.8157   21.2044   38.4485 H   0  0  0  0  0  0  0  0  0  0  0  0
   19.5415   26.0699   37.3217 H   0  0  0  0  0  0  0  0  0  0  0  0
   20.6854   26.3906   38.6834 H   0  0  0  0  0  0  0  0  0  0  0  0
  1  2  1  0
  2  3  2  0
  2  4  1  0
  4  5  2  0
  5  6  1  0
  6  7  2  0
  7  8  1  0
  8  9  2  0
  9 10  1  0
 10 11  2  0
 11 12  1  0
 12 13  2  0
 13 14  1  0
  1 15  1  0
 15 16  2  0
 16 17  1  0
 17 18  2  0
 18 19  1  0
 19 20  1  0
 20 21  1  0
 20 22  1  0
 22 23  2  0
 22 24  1  0
 24 25  1  0
 25 26  2  0
 26 27  1  0
 13  4  1  0
 26 15  1  0
 12  7  1  0
 25 18  1  0
  1 28  1  0
  8 29  1  0
  9 30  1  0
 10 31  1  0
 11 32  1  0
 14 33  1  0
 14 34  1  0
 17 35  1  0
 19 36  1  0
 19 37  1  0
 21 38  1  0
 21 39  1  0
 21 40  1  0
 24 41  1  0
 24 42  1  0
M  END
$$$$
confid_6
     RDKit          3D

 42 45  0  0  0  0  0  0  0  0999 V2000
   24.6900   26.1200   35.5300 N   0  0  0  0  0  0  0  0  0  0  0  0
   25.6600   25.6700   34.6600 C   0  0  0  0  0  0  0  0  0  0  0  0
   25.2400   25.0100   33.7200 O   0  0  0  0  0  0  0  0  0  0  0  0
   27.0300   26.2200   34.8800 C   0  0  0  0  0  0  0  0  0  0  0  0
   27.3500   26.7300   36.0700 N   0  0  0  0  0  0  0  0  0  0  0  0
   28.5700   27.1800   36.3300 N   0  0  0  0  0  0  0  0  0  0  0  0
   29.5300   27.1100   35.3900 C   0  0  0  0  0  0  0  0  0  0  0  0
   30.8300   27.5700   35.6500 C   0  0  0  0  0  0  0  0  0  0  0  0
   31.8500   27.5400   34.6900 C   0  0  0  0  0  0  0  0  0  0  0  0
   31.5100   27.1200   33.4000 C   0  0  0  0  0  0  0  0  0  0  0  0
   30.2200   26.6300   33.1100 C   0  0  0  0  0  0  0  0  0  0  0  0
   29.2400   26.6600   34.1000 C   0  0  0  0  0  0  0  0  0  0  0  0
   27.9300   26.2600   33.8100 C   0  0  0  0  0  0  0  0  0  0  0  0
   27.5200   25.7100   32.6100 N   0  0  0  0  0  0  0  0  0  0  0  0
   23.5658   25.3152   35.9452 C   0  0  0  0  0  0  0  0  0  0  0  0
   23.5548   23.9835   35.6631 N   0  0  0  0  0  0  0  0  0  0  0  0
   22.5571   23.1598   36.0658 C   0  0  0  0  0  0  0  0  0  0  0  0
   21.4756   23.6659   36.7938 C   0  0  0  0  0  0  0  0  0  0  0  0
   20.4213   22.7234   37.3163 C   0  0  0  0  0  0  0  0  0  0  0  0
   19.1162   23.3839   37.4263 N   0  0  0  0  0  0  0  0  0  0  0  0
   17.8860   22.5954   37.3290 C   0  0  0  0  0  0  0  0  0  0  0  0
   19.0432   24.7767   37.7756 C   0  0  0  0  0  0  0  0  0  0  0  0
   17.9256   25.3221   37.9872 O   0  0  0  0  0  0  0  0  0  0  0  0
   20.2949   25.5891   37.9315 C   0  0  0  0  0  0  0  0  0  0  0  0
   21.4339   25.0415   37.0986 C   0  0  0  0  0  0  0  0  0  0  0  0
   22.5010   25.8732   36.6868 C   0  0  0  0  0  0  0  0  0  0  0  0
   22.5088   27.5911   37.1028 Cl  0  0  0  0  0  0  0  0  0  0  0  0
   24.8161   27.0657   35.9543 H   0  0  0  0  0  0  0  0  0  0  0  0
   31.0672   27.9417   36.6393 H   0  0  0  0  0  0  0  0  0  0  0  0
   32.8483   27.8885   34.9211 H   0  0  0  0  0  0  0  0  0  0  0  0
   32.2640   27.1263   32.6235 H   0  0  0  0  0  0  0  0  0  0  0  0
   30.0100   26.3034   32.1003 H   0  0  0  0  0  0  0  0  0  0  0  0
   26.6938   26.1025   32.1056 H   0  0  0  0  0  0  0  0  0  0  0  0
   28.1316   25.0435   32.0892 H   0  0  0  0  0  0  0  0  0  0  0  0
   22.6155   22.1048   35.8270 H   0  0  0  0  0  0  0  0  0  0  0  0
   20.7304   22.3627   38.3197 H   0  0  0  0  0  0  0  0  0  0  0  0
   20.3428   21.8436   36.6404 H   0  0  0  0  0  0  0  0  0  0  0  0
   17.3293   22.6475   38.2888 H   0  0  0  0  0  0  0  0  0  0  0  0
   18.1049   21.5276   37.1116 H   0  0  0  0  0  0  0  0  0  0  0  0
   17.2488   22.9964   36.5127 H   0  0  0  0  0  0  0  0  0  0  0  0
   20.0604   26.6307   37.6304 H   0  0  0  0  0  0  0  0  0  0  0  0
   20.5953   25.5889   39.0001 H   0  0  0  0  0  0  0  0  0  0  0  0
  1  2  1  0
  2  3  2  0
  2  4  1  0
  4  5  2  0
  5  6  1  0
  6  7  2  0
  7  8  1  0
  8  9  2  0
  9 10  1  0
 10 11  2  0
 11 12  1  0
 12 13  2  0
 13 14  1  0
  1 15  1  0
 15 16  2  0
 16 17  1  0
 17 18  2  0
 18 19  1  0
 19 20  1  0
 20 21  1  0
 20 22  1  0
 22 23  2  0
 22 24  1  0
 24 25  1  0
 25 26  2  0
 26 27  1  0
 13  4  1  0
 26 15  1  0
 12  7  1  0
 25 18  1  0
  1 28  1  0
  8 29  1  0
  9 30  1  0
 10 31  1  0
 11 32  1  0
 14 33  1  0
 14 34  1  0
 17 35  1  0
 19 36  1  0
 19 37  1  0
 21 38  1  0
 21 39  1  0
 21 40  1  0
 24 41  1  0
 24 42  1  0
M  END
$$$$
confid_7
     RDKit          3D

 42 45  0  0  0  0  0  0  0  0999 V2000
   24.6900   26.1200   35.5300 N   0  0  0  0  0  0  0  0  0  0  0  0
   25.6600   25.6700   34.6600 C   0  0  0  0  0  0  0  0  0  0  0  0
   25.2400   25.0100   33.7200 O   0  0  0  0  0  0  0  0  0  0  0  0
   27.0300   26.2200   34.8800 C   0  0  0  0  0  0  0  0  0  0  0  0
   27.3500   26.7300   36.0700 N   0  0  0  0  0  0  0  0  0  0  0  0
   28.5700   27.1800   36.3300 N   0  0  0  0  0  0  0  0  0  0  0  0
   29.5300   27.1100   35.3900 C   0  0  0  0  0  0  0  0  0  0  0  0
   30.8300   27.5700   35.6500 C   0  0  0  0  0  0  0  0  0  0  0  0
   31.8500   27.5400   34.6900 C   0  0  0  0  0  0  0  0  0  0  0  0
   31.5100   27.1200   33.4000 C   0  0  0  0  0  0  0  0  0  0  0  0
   30.2200   26.6300   33.1100 C   0  0  0  0  0  0  0  0  0  0  0  0
   29.2400   26.6600   34.1000 C   0  0  0  0  0  0  0  0  0  0  0  0
   27.9300   26.2600   33.8100 C   0  0  0  0  0  0  0  0  0  0  0  0
   27.5200   25.7100   32.6100 N   0  0  0  0  0  0  0  0  0  0  0  0
   23.4733   25.4033   35.8458 C   0  0  0  0  0  0  0  0  0  0  0  0
   23.2011   24.2224   35.2227 N   0  0  0  0  0  0  0  0  0  0  0  0
   22.0801   23.5025   35.4721 C   0  0  0  0  0  0  0  0  0  0  0  0
   21.1339   23.9680   36.3897 C   0  0  0  0  0  0  0  0  0  0  0  0
   19.9264   23.1245   36.7119 C   0  0  0  0  0  0  0  0  0  0  0  0
   18.7793   23.9609   37.0842 N   0  0  0  0  0  0  0  0  0  0  0  0
   17.4151   23.5089   36.7940 C   0  0  0  0  0  0  0  0  0  0  0  0
   18.9902   25.1714   37.8336 C   0  0  0  0  0  0  0  0  0  0  0  0
   18.0075   25.8151   38.2942 O   0  0  0  0  0  0  0  0  0  0  0  0
   20.3812   25.6650   38.1081 C   0  0  0  0  0  0  0  0  0  0  0  0
   21.3690   25.1840   37.0651 C   0  0  0  0  0  0  0  0  0  0  0  0
   22.5632   25.8984   36.8094 C   0  0  0  0  0  0  0  0  0  0  0  0
   22.9323   27.3708   37.7220 Cl  0  0  0  0  0  0  0  0  0  0  0  0
   24.8587   27.0350   36.0019 H   0  0  0  0  0  0  0  0  0  0  0  0
   31.0674   27.9414   36.6393 H   0  0  0  0  0  0  0  0  0  0  0  0
   32.8487   27.8871   34.9214 H   0  0  0  0  0  0  0  0  0  0  0  0
   32.2655   27.1207   32.6249 H   0  0  0  0  0  0  0  0  0  0  0  0
   30.0115   26.2784   32.1079 H   0  0  0  0  0  0  0  0  0  0  0  0
   27.3401   24.6834   32.5420 H   0  0  0  0  0  0  0  0  0  0  0  0
   27.6988   26.2222   31.7181 H   0  0  0  0  0  0  0  0  0  0  0  0
   21.9293   22.5635   34.9530 H   0  0  0  0  0  0  0  0  0  0  0  0
   19.6666   22.4923   35.8327 H   0  0  0  0  0  0  0  0  0  0  0  0
   20.1772   22.4521   37.5611 H   0  0  0  0  0  0  0  0  0  0  0  0
   17.4131   22.5036   36.3209 H   0  0  0  0  0  0  0  0  0  0  0  0
   16.8302   23.4446   37.7353 H   0  0  0  0  0  0  0  0  0  0  0  0
   16.9232   24.2259   36.1037 H   0  0  0  0  0  0  0  0  0  0  0  0
   20.7045   25.3056   39.1086 H   0  0  0  0  0  0  0  0  0  0  0  0
   20.3458   26.7758   38.1245 H   0  0  0  0  0  0  0  0  0  0  0  0
  1  2  1  0
  2  3  2  0
  2  4  1  0
  4  5  2  0
  5  6  1  0
  6  7  2  0
  7  8  1  0
  8  9  2  0
  9 10  1  0
 10 11  2  0
 11 12  1  0
 12 13  2  0
 13 14  1  0
  1 15  1  0
 15 16  2  0
 16 17  1  0
 17 18  2  0
 18 19  1  0
 19 20  1  0
 20 21  1  0
 20 22  1  0
 22 23  2  0
 22 24  1  0
 24 25  1  0
 25 26  2  0
 26 27  1  0
 13  4  1  0
 26 15  1  0
 12  7  1  0
 25 18  1  0
  1 28  1  0
  8 29  1  0
  9 30  1  0
 10 31  1  0
 11 32  1  0
 14 33  1  0
 14 34  1  0
 17 35  1  0
 19 36  1  0
 19 37  1  0
 21 38  1  0
 21 39  1  0
 21 40  1  0
 24 41  1  0
 24 42  1  0
M  END
$$$$
