confid_0
     RDKit          3D

 43 46  0  0  0  0  0  0  0  0999 V2000
   25.3300   26.2600   34.7600 N   0  0  0  0  0  0  0  0  0  0  0  0
   26.1200   25.9200   33.6900 C   0  0  0  0  0  0  0  0  0  0  0  0
   25.6300   25.1100   32.9400 O   0  0  0  0  0  0  0  0  0  0  0  0
   27.5200   26.3800   33.4600 C   0  0  0  0  0  0  0  0  0  0  0  0
   28.1600   26.6300   34.6100 N   0  0  0  0  0  0  0  0  0  0  0  0
   29.4800   26.8500   34.5700 N   0  0  0  0  0  0  0  0  0  0  0  0
   30.1900   26.7800   33.4400 C   0  0  0  0  0  0  0  0  0  0  0  0
   31.5600   27.0500   33.5000 C   0  0  0  0  0  0  0  0  0  0  0  0
   32.2700   27.2400   32.3100 C   0  0  0  0  0  0  0  0  0  0  0  0
   31.6100   27.2500   31.0800 C   0  0  0  0  0  0  0  0  0  0  0  0
   30.2700   26.8700   31.0600 C   0  0  0  0  0  0  0  0  0  0  0  0
   29.5100   26.6900   32.2300 C   0  0  0  0  0  0  0  0  0  0  0  0
   28.1400   26.4100   32.2000 C   0  0  0  0  0  0  0  0  0  0  0  0
   27.4300   26.1300   31.0500 N   0  0  0  0  0  0  0  0  0  0  0  0
   23.9023   26.0563   34.8235 C   0  0  0  0  0  0  0  0  0  0  0  0
   23.1797   26.0438   33.6707 N   0  0  0  0  0  0  0  0  0  0  0  0
   21.8312   25.9217   33.6584 C   0  0  0  0  0  0  0  0  0  0  0  0
   21.1235   25.8377   34.8539 C   0  0  0  0  0  0  0  0  0  0  0  0
   19.7337   25.7545   34.8064 O   0  0  0  0  0  0  0  0  0  0  0  0
   18.9622   25.7841   35.9607 C   0  0  0  0  0  0  0  0  0  0  0  0
   17.7064   25.7439   35.8647 O   0  0  0  0  0  0  0  0  0  0  0  0
   19.5957   25.8777   37.2447 N   0  0  0  0  0  0  0  0  0  0  0  0
   18.7724   25.9848   38.4509 C   0  0  0  0  0  0  0  0  0  0  0  0
   21.0505   25.7266   37.3847 C   0  0  0  0  0  0  0  0  0  0  0  0
   21.8171   25.8491   36.0787 C   0  0  0  0  0  0  0  0  0  0  0  0
   23.2366   25.9216   36.0673 C   0  0  0  0  0  0  0  0  0  0  0  0
   24.0356   25.8910   37.3520 C   0  0  0  0  0  0  0  0  0  0  0  0
   25.7808   26.7852   35.5419 H   0  0  0  0  0  0  0  0  0  0  0  0
   32.0668   27.1425   34.4530 H   0  0  0  0  0  0  0  0  0  0  0  0
   33.3288   27.4608   32.3494 H   0  0  0  0  0  0  0  0  0  0  0  0
   32.1515   27.4335   30.1608 H   0  0  0  0  0  0  0  0  0  0  0  0
   29.8039   26.7906   30.0880 H   0  0  0  0  0  0  0  0  0  0  0  0
   27.5769   26.6941   30.1847 H   0  0  0  0  0  0  0  0  0  0  0  0
   26.8604   25.2629   30.9529 H   0  0  0  0  0  0  0  0  0  0  0  0
   21.3045   25.9148   32.7132 H   0  0  0  0  0  0  0  0  0  0  0  0
   18.1844   26.9262   38.4197 H   0  0  0  0  0  0  0  0  0  0  0  0
   18.0790   25.1195   38.5126 H   0  0  0  0  0  0  0  0  0  0  0  0
   19.4019   25.9933   39.3667 H   0  0  0  0  0  0  0  0  0  0  0  0
   21.2576   24.7280   37.8258 H   0  0  0  0  0  0  0  0  0  0  0  0
   21.4189   26.5076   38.0851 H   0  0  0  0  0  0  0  0  0  0  0  0
   24.2219   26.9290   37.6980 H   0  0  0  0  0  0  0  0  0  0  0  0
   23.5189   25.3284   38.1545 H   0  0  0  0  0  0  0  0  0  0  0  0
   25.0056   25.3724   37.2030 H   0  0  0  0  0  0  0  0  0  0  0  0
  1  2  1  0
  2  3  2  0
  2  4  1  0
  4  5  2  0
  5  6  1  0
  6  7  2  0
  7  8  1  0
  8  9  2  0
  9 10  1  0
 10 11  2  0
 11 12  1  0
 12 13  2  0
 13 14  1  0
  1 15  1  0
 15 16  2  0
 16 17  1  0
 17 18  2  0
 18 19  1  0
 19 20  1  0
 20 21  2  0
 20 22  1  0
 22 23  1  0
 22 24  1  0
 24 25  1  0
 25 26  2  0
 26 27  1  0
 13  4  1  0
 26 15  1  0
 12  7  1  0
 25 18  1  0
  1 28  1  0
  8 29  1  0
  9 30  1  0
 10 31  1  0
 11 32  1  0
 14 33  1  0
 14 34  1  0
 17 35  1  0
 23 36  1  0
 23 37  1  0
 23 38  1  0
 24 39  1  0
 24 40  1  0
 27 41  1  0
 27 42  1  0
 27 43  1  0
M  END
$$$$
confid_1
     RDKit          3D

 43 46  0  0  0  0  0  0  0  0999 V2000
   25.3300   26.2600   34.7600 N   0  0  0  0  0  0  0  0  0  0  0  0
   26.1200   25.9200   33.6900 C   0  0  0  0  0  0  0  0  0  0  0  0
   25.6300   25.1100   32.9400 O   0  0  0  0  0  0  0  0  0  0  0  0
   27.5200   26.3800   33.4600 C   0  0  0  0  0  0  0  0  0  0  0  0
   28.1600   26.6300   34.6100 N   0  0  0  0  0  0  0  0  0  0  0  0
   29.4800   26.8500   34.5700 N   0  0  0  0  0  0  0  0  0  0  0  0
   30.1900   26.7800   33.4400 C   0  0  0  0  0  0  0  0  0  0  0  0
   31.5600   27.0500   33.5000 C   0  0  0  0  0  0  0  0  0  0  0  0
   32.2700   27.2400   32.3100 C   0  0  0  0  0  0  0  0  0  0  0  0
   31.6100   27.2500   31.0800 C   0  0  0  0  0  0  0  0  0  0  0  0
   30.2700   26.8700   31.0600 C   0  0  0  0  0  0  0  0  0  0  0  0
   29.5100   26.6900   32.2300 C   0  0  0  0  0  0  0  0  0  0  0  0
   28.1400   26.4100   32.2000 C   0  0  0  0  0  0  0  0  0  0  0  0
   27.4300   26.1300   31.0500 N   0  0  0  0  0  0  0  0  0  0  0  0
   23.9310   25.9303   34.8859 C   0  0  0  0  0  0  0  0  0  0  0  0
   23.1550   25.8874   33.7696 N   0  0  0  0  0  0  0  0  0  0  0  0
   21.8259   25.6325   33.8175 C   0  0  0  0  0  0  0  0  0  0  0  0
   21.1937   25.4304   35.0407 C   0  0  0  0  0  0  0  0  0  0  0  0
   19.8199   25.1984   35.0557 O   0  0  0  0  0  0  0  0  0  0  0  0
   19.1111   25.0990   36.2454 C   0  0  0  0  0  0  0  0  0  0  0  0
   17.8640   24.9203   36.2076 O   0  0  0  0  0  0  0  0  0  0  0  0
   19.7965   25.2186   37.5006 N   0  0  0  0  0  0  0  0  0  0  0  0
   19.0296   25.1968   38.7477 C   0  0  0  0  0  0  0  0  0  0  0  0
   21.2647   25.2204   37.5651 C   0  0  0  0  0  0  0  0  0  0  0  0
   21.9448   25.4715   36.2303 C   0  0  0  0  0  0  0  0  0  0  0  0
   23.3470   25.6904   36.1540 C   0  0  0  0  0  0  0  0  0  0  0  0
   24.2088   25.6987   37.3978 C   0  0  0  0  0  0  0  0  0  0  0  0
   25.7617   26.8386   35.5145 H   0  0  0  0  0  0  0  0  0  0  0  0
   32.0668   27.1430   34.4530 H   0  0  0  0  0  0  0  0  0  0  0  0
   33.3284   27.4627   32.3495 H   0  0  0  0  0  0  0  0  0  0  0  0
   32.1496   27.4414   30.1613 H   0  0  0  0  0  0  0  0  0  0  0  0
   29.7983   26.8254   30.0885 H   0  0  0  0  0  0  0  0  0  0  0  0
   26.4123   26.3487   30.9740 H   0  0  0  0  0  0  0  0  0  0  0  0
   27.8914   25.7250   30.2068 H   0  0  0  0  0  0  0  0  0  0  0  0
   21.2543   25.6043   32.8990 H   0  0  0  0  0  0  0  0  0  0  0  0
   18.3343   26.0620   38.7743 H   0  0  0  0  0  0  0  0  0  0  0  0
   19.7000   25.2568   39.6320 H   0  0  0  0  0  0  0  0  0  0  0  0
   18.4468   24.2542   38.8157 H   0  0  0  0  0  0  0  0  0  0  0  0
   21.5847   26.0104   38.2789 H   0  0  0  0  0  0  0  0  0  0  0  0
   21.5991   24.2346   37.9539 H   0  0  0  0  0  0  0  0  0  0  0  0
   24.2768   26.7322   37.7959 H   0  0  0  0  0  0  0  0  0  0  0  0
   25.2290   25.3200   37.1805 H   0  0  0  0  0  0  0  0  0  0  0  0
   23.8075   25.0325   38.1865 H   0  0  0  0  0  0  0  0  0  0  0  0
  1  2  1  0
  2  3  2  0
  2  4  1  0
  4  5  2  0
  5  6  1  0
  6  7  2  0
  7  8  1  0
  8  9  2  0
  9 10  1  0
 10 11  2  0
 11 12  1  0
 12 13  2  0
 13 14  1  0
  1 15  1  0
 15 16  2  0
 16 17  1  0
 17 18  2  0
 18 19  1  0
 19 20  1  0
 20 21  2  0
 20 22  1  0
 22 23  1  0
 22 24  1  0
 24 25  1  0
 25 26  2  0
 26 27  1  0
 13  4  1  0
 26 15  1  0
 12  7  1  0
 25 18  1  0
  1 28  1  0
  8 29  1  0
  9 30  1  0
 10 31  1  0
 11 32  1  0
 14 33  1  0
 14 34  1  0
 17 35  1  0
 23 36  1  0
 23 37  1  0
 23 38  1  0
 24 39  1  0
 24 40  1  0
 27 41  1  0
 27 42  1  0
 27 43  1  0
M  END
$$$$
confid_2
     RDKit          3D

 43 46  0  0  0  0  0  0  0  0999 V2000
   25.3300   26.2600   34.7600 N   0  0  0  0  0  0  0  0  0  0  0  0
   26.1200   25.9200   33.6900 C   0  0  0  0  0  0  0  0  0  0  0  0
   25.6300   25.1100   32.9400 O   0  0  0  0  0  0  0  0  0  0  0  0
   27.5200   26.3800   33.4600 C   0  0  0  0  0  0  0  0  0  0  0  0
   28.1600   26.6300   34.6100 N   0  0  0  0  0  0  0  0  0  0  0  0
   29.4800   26.8500   34.5700 N   0  0  0  0  0  0  0  0  0  0  0  0
   30.1900   26.7800   33.4400 C   0  0  0  0  0  0  0  0  0  0  0  0
   31.5600   27.0500   33.5000 C   0  0  0  0  0  0  0  0  0  0  0  0
   32.2700   27.2400   32.3100 C   0  0  0  0  0  0  0  0  0  0  0  0
   31.6100   27.2500   31.0800 C   0  0  0  0  0  0  0  0  0  0  0  0
   30.2700   26.8700   31.0600 C   0  0  0  0  0  0  0  0  0  0  0  0
   29.5100   26.6900   32.2300 C   0  0  0  0  0  0  0  0  0  0  0  0
   28.1400   26.4100   32.2000 C   0  0  0  0  0  0  0  0  0  0  0  0
   27.4300   26.1300   31.0500 N   0  0  0  0  0  0  0  0  0  0  0  0
   24.1848   25.5078   35.2147 C   0  0  0  0  0  0  0  0  0  0  0  0
   24.1470   24.1634   35.0084 N   0  0  0  0  0  0  0  0  0  0  0  0
   23.1370   23.3853   35.4640 C   0  0  0  0  0  0  0  0  0  0  0  0
   22.0995   23.9446   36.2042 C   0  0  0  0  0  0  0  0  0  0  0  0
   21.0977   23.1090   36.6926 O   0  0  0  0  0  0  0  0  0  0  0  0
   20.0983   23.5832   37.5321 C   0  0  0  0  0  0  0  0  0  0  0  0
   19.2351   22.7809   37.9784 O   0  0  0  0  0  0  0  0  0  0  0  0
   20.0665   24.9704   37.8973 N   0  0  0  0  0  0  0  0  0  0  0  0
   19.0542   25.4461   38.8423 C   0  0  0  0  0  0  0  0  0  0  0  0
   20.9404   25.9487   37.2352 C   0  0  0  0  0  0  0  0  0  0  0  0
   22.0866   25.3300   36.4531 C   0  0  0  0  0  0  0  0  0  0  0  0
   23.1275   26.1369   35.9182 C   0  0  0  0  0  0  0  0  0  0  0  0
   23.1399   27.6372   36.1154 C   0  0  0  0  0  0  0  0  0  0  0  0
   25.6239   27.0949   35.3145 H   0  0  0  0  0  0  0  0  0  0  0  0
   32.0668   27.1429   34.4530 H   0  0  0  0  0  0  0  0  0  0  0  0
   33.3284   27.4627   32.3495 H   0  0  0  0  0  0  0  0  0  0  0  0
   32.1496   27.4414   30.1613 H   0  0  0  0  0  0  0  0  0  0  0  0
   29.7983   26.8254   30.0886 H   0  0  0  0  0  0  0  0  0  0  0  0
   26.4124   26.3494   30.9737 H   0  0  0  0  0  0  0  0  0  0  0  0
   27.8914   25.7239   30.2072 H   0  0  0  0  0  0  0  0  0  0  0  0
   23.1540   22.3209   35.2701 H   0  0  0  0  0  0  0  0  0  0  0  0
   18.0392   25.2061   38.4607 H   0  0  0  0  0  0  0  0  0  0  0  0
   19.1226   26.5463   38.9831 H   0  0  0  0  0  0  0  0  0  0  0  0
   19.2026   24.9557   39.8274 H   0  0  0  0  0  0  0  0  0  0  0  0
   21.3653   26.6216   38.0116 H   0  0  0  0  0  0  0  0  0  0  0  0
   20.3221   26.5552   36.5392 H   0  0  0  0  0  0  0  0  0  0  0  0
   23.5681   28.1489   35.2283 H   0  0  0  0  0  0  0  0  0  0  0  0
   22.1206   28.0546   36.2347 H   0  0  0  0  0  0  0  0  0  0  0  0
   23.7425   27.8887   37.0129 H   0  0  0  0  0  0  0  0  0  0  0  0
  1  2  1  0
  2  3  2  0
  2  4  1  0
  4  5  2  0
  5  6  1  0
  6  7  2  0
  7  8  1  0
  8  9  2  0
  9 10  1  0
 10 11  2  0
 11 12  1  0
 12 13  2  0
 13 14  1  0
  1 15  1  0
 15 16  2  0
 16 17  1  0
 17 18  2  0
 18 19  1  0
 19 20  1  0
 20 21  2  0
 20 22  1  0
 22 23  1  0
 22 24  1  0
 24 25  1  0
 25 26  2  0
 26 27  1  0
 13  4  1  0
 26 15  1  0
 12  7  1  0
 25 18  1  0
  1 28  1  0
  8 29  1  0
  9 30  1  0
 10 31  1  0
 11 32  1  0
 14 33  1  0
 14 34  1  0
 17 35  1  0
 23 36  1  0
 23 37  1  0
 23 38  1  0
 24 39  1  0
 24 40  1  0
 27 41  1  0
 27 42  1  0
 27 43  1  0
M  END
$$$$
