confid_0
     RDKit          3D

 43 46  0  0  0  0  0  0  0  0999 V2000
   24.5500   26.3900   36.2500 N   0  0  0  0  0  0  0  0  0  0  0  0
   25.6000   26.1300   35.4000 C   0  0  0  0  0  0  0  0  0  0  0  0
   25.4300   25.4300   34.4200 O   0  0  0  0  0  0  0  0  0  0  0  0
   26.9800   26.6300   35.7100 C   0  0  0  0  0  0  0  0  0  0  0  0
   27.3200   26.8200   36.9800 N   0  0  0  0  0  0  0  0  0  0  0  0
   28.4700   27.4000   37.3100 N   0  0  0  0  0  0  0  0  0  0  0  0
   29.4000   27.6300   36.3700 C   0  0  0  0  0  0  0  0  0  0  0  0
   30.6600   28.0500   36.8000 C   0  0  0  0  0  0  0  0  0  0  0  0
   31.5700   28.3600   35.7800 C   0  0  0  0  0  0  0  0  0  0  0  0
   31.3700   28.1000   34.4300 C   0  0  0  0  0  0  0  0  0  0  0  0
   30.1200   27.5900   34.0500 C   0  0  0  0  0  0  0  0  0  0  0  0
   29.1500   27.3400   35.0300 C   0  0  0  0  0  0  0  0  0  0  0  0
   27.8800   26.8900   34.6600 C   0  0  0  0  0  0  0  0  0  0  0  0
   27.4800   26.6100   33.3700 N   0  0  0  0  0  0  0  0  0  0  0  0
   31.0185   28.2730   38.2253 C   0  0  0  0  0  0  0  0  0  0  0  0
   31.8840   29.2623   38.7014 C   0  0  0  0  0  0  0  0  0  0  0  0
   32.0736   29.2033   40.0874 C   0  0  0  0  0  0  0  0  0  0  0  0
   32.8647   30.1865   40.8991 C   0  0  0  0  0  0  0  0  0  0  0  0
   33.3770   29.5385   42.2135 C   0  0  0  0  0  0  0  0  0  0  0  0
   32.2856   28.8174   42.9259 N   0  0  0  0  0  0  0  0  0  0  0  0
   32.2913   28.6802   44.3897 C   0  0  0  0  0  0  0  0  0  0  0  0
   31.4030   27.9854   42.1392 C   0  0  0  0  0  0  0  0  0  0  0  0
   30.6834   27.0985   42.6732 O   0  0  0  0  0  0  0  0  0  0  0  0
   31.3571   28.1966   40.6958 C   0  0  0  0  0  0  0  0  0  0  0  0
   30.4962   27.3384   39.5383 S   0  0  0  0  0  0  0  0  0  0  0  0
   34.0547   30.6137   43.0786 C   0  0  0  0  0  0  0  0  0  0  0  0
   24.6739   26.9931   37.0934 H   0  0  0  0  0  0  0  0  0  0  0  0
   23.6001   26.0040   36.0503 H   0  0  0  0  0  0  0  0  0  0  0  0
   32.5425   28.7494   36.0530 H   0  0  0  0  0  0  0  0  0  0  0  0
   32.1355   28.3148   33.6954 H   0  0  0  0  0  0  0  0  0  0  0  0
   29.9377   27.4167   32.9984 H   0  0  0  0  0  0  0  0  0  0  0  0
   26.5962   27.0149   32.9873 H   0  0  0  0  0  0  0  0  0  0  0  0
   28.1242   26.1386   32.6979 H   0  0  0  0  0  0  0  0  0  0  0  0
   32.3467   30.0130   38.0741 H   0  0  0  0  0  0  0  0  0  0  0  0
   33.7274   30.5520   40.3003 H   0  0  0  0  0  0  0  0  0  0  0  0
   32.2073   31.0512   41.1354 H   0  0  0  0  0  0  0  0  0  0  0  0
   34.1564   28.7925   41.9400 H   0  0  0  0  0  0  0  0  0  0  0  0
   31.3758   28.1716   44.7576 H   0  0  0  0  0  0  0  0  0  0  0  0
   32.3118   29.6784   44.8727 H   0  0  0  0  0  0  0  0  0  0  0  0
   33.1780   28.0923   44.7070 H   0  0  0  0  0  0  0  0  0  0  0  0
   33.3099   31.3605   43.4276 H   0  0  0  0  0  0  0  0  0  0  0  0
   34.8361   31.1412   42.4906 H   0  0  0  0  0  0  0  0  0  0  0  0
   34.5556   30.1510   43.9549 H   0  0  0  0  0  0  0  0  0  0  0  0
  1  2  1  0
  2  3  2  0
  2  4  1  0
  4  5  2  0
  5  6  1  0
  6  7  2  0
  7  8  1  0
  8  9  2  0
  9 10  1  0
 10 11  2  0
 11 12  1  0
 12 13  2  0
 13 14  1  0
  8 15  1  0
 15 16  2  0
 16 17  1  0
 17 18  1  0
 18 19  1  0
 19 20  1  0
 20 21  1  0
 20 22  1  0
 22 23  2  0
 22 24  1  0
 24 25  1  0
 19 26  1  0
 13  4  1  0
 25 15  1  0
 12  7  1  0
 24 17  2  0
  1 27  1  0
  1 28  1  0
  9 29  1  0
 10 30  1  0
 11 31  1  0
 14 32  1  0
 14 33  1  0
 16 34  1  0
 18 35  1  0
 18 36  1  0
 19 37  1  0
 21 38  1  0
 21 39  1  0
 21 40  1  0
 26 41  1  0
 26 42  1  0
 26 43  1  0
M  END
$$$$
confid_1
     RDKit          3D

 43 46  0  0  0  0  0  0  0  0999 V2000
   24.5500   26.3900   36.2500 N   0  0  0  0  0  0  0  0  0  0  0  0
   25.6000   26.1300   35.4000 C   0  0  0  0  0  0  0  0  0  0  0  0
   25.4300   25.4300   34.4200 O   0  0  0  0  0  0  0  0  0  0  0  0
   26.9800   26.6300   35.7100 C   0  0  0  0  0  0  0  0  0  0  0  0
   27.3200   26.8200   36.9800 N   0  0  0  0  0  0  0  0  0  0  0  0
   28.4700   27.4000   37.3100 N   0  0  0  0  0  0  0  0  0  0  0  0
   29.4000   27.6300   36.3700 C   0  0  0  0  0  0  0  0  0  0  0  0
   30.6600   28.0500   36.8000 C   0  0  0  0  0  0  0  0  0  0  0  0
   31.5700   28.3600   35.7800 C   0  0  0  0  0  0  0  0  0  0  0  0
   31.3700   28.1000   34.4300 C   0  0  0  0  0  0  0  0  0  0  0  0
   30.1200   27.5900   34.0500 C   0  0  0  0  0  0  0  0  0  0  0  0
   29.1500   27.3400   35.0300 C   0  0  0  0  0  0  0  0  0  0  0  0
   27.8800   26.8900   34.6600 C   0  0  0  0  0  0  0  0  0  0  0  0
   27.4800   26.6100   33.3700 N   0  0  0  0  0  0  0  0  0  0  0  0
   31.0188   28.2819   38.2214 C   0  0  0  0  0  0  0  0  0  0  0  0
   30.6305   27.5022   39.3148 C   0  0  0  0  0  0  0  0  0  0  0  0
   31.1634   27.9597   40.5262 C   0  0  0  0  0  0  0  0  0  0  0  0
   30.8223   27.4246   41.8808 C   0  0  0  0  0  0  0  0  0  0  0  0
   31.9659   27.6609   42.9103 C   0  0  0  0  0  0  0  0  0  0  0  0
   32.5555   29.0283   42.8123 N   0  0  0  0  0  0  0  0  0  0  0  0
   33.4185   29.5633   43.8758 C   0  0  0  0  0  0  0  0  0  0  0  0
   32.5725   29.7163   41.5411 C   0  0  0  0  0  0  0  0  0  0  0  0
   33.1375   30.8366   41.4132 O   0  0  0  0  0  0  0  0  0  0  0  0
   31.9344   29.0876   40.3936 C   0  0  0  0  0  0  0  0  0  0  0  0
   32.0140   29.5333   38.7767 S   0  0  0  0  0  0  0  0  0  0  0  0
   31.4119   27.3707   44.3185 C   0  0  0  0  0  0  0  0  0  0  0  0
   24.6739   26.9931   37.0934 H   0  0  0  0  0  0  0  0  0  0  0  0
   23.6001   26.0040   36.0503 H   0  0  0  0  0  0  0  0  0  0  0  0
   32.5392   28.7568   36.0553 H   0  0  0  0  0  0  0  0  0  0  0  0
   32.1349   28.3164   33.6953 H   0  0  0  0  0  0  0  0  0  0  0  0
   29.9376   27.4171   32.9984 H   0  0  0  0  0  0  0  0  0  0  0  0
   26.5962   27.0149   32.9873 H   0  0  0  0  0  0  0  0  0  0  0  0
   28.1242   26.1386   32.6978 H   0  0  0  0  0  0  0  0  0  0  0  0
   29.9970   26.6282   39.2437 H   0  0  0  0  0  0  0  0  0  0  0  0
   29.8958   27.9369   42.2215 H   0  0  0  0  0  0  0  0  0  0  0  0
   30.6092   26.3358   41.8061 H   0  0  0  0  0  0  0  0  0  0  0  0
   32.7703   26.9226   42.6970 H   0  0  0  0  0  0  0  0  0  0  0  0
   34.4080   29.8501   43.4596 H   0  0  0  0  0  0  0  0  0  0  0  0
   33.6187   28.8215   44.6711 H   0  0  0  0  0  0  0  0  0  0  0  0
   32.9402   30.4579   44.3264 H   0  0  0  0  0  0  0  0  0  0  0  0
   30.7780   26.4578   44.3094 H   0  0  0  0  0  0  0  0  0  0  0  0
   32.2298   27.1729   45.0402 H   0  0  0  0  0  0  0  0  0  0  0  0
   30.7980   28.2247   44.6764 H   0  0  0  0  0  0  0  0  0  0  0  0
  1  2  1  0
  2  3  2  0
  2  4  1  0
  4  5  2  0
  5  6  1  0
  6  7  2  0
  7  8  1  0
  8  9  2  0
  9 10  1  0
 10 11  2  0
 11 12  1  0
 12 13  2  0
 13 14  1  0
  8 15  1  0
 15 16  2  0
 16 17  1  0
 17 18  1  0
 18 19  1  0
 19 20  1  0
 20 21  1  0
 20 22  1  0
 22 23  2  0
 22 24  1  0
 24 25  1  0
 19 26  1  0
 13  4  1  0
 25 15  1  0
 12  7  1  0
 24 17  2  0
  1 27  1  0
  1 28  1  0
  9 29  1  0
 10 30  1  0
 11 31  1  0
 14 32  1  0
 14 33  1  0
 16 34  1  0
 18 35  1  0
 18 36  1  0
 19 37  1  0
 21 38  1  0
 21 39  1  0
 21 40  1  0
 26 41  1  0
 26 42  1  0
 26 43  1  0
M  END
$$$$
confid_2
     RDKit          3D

 43 46  0  0  0  0  0  0  0  0999 V2000
   24.5500   26.3900   36.2500 N   0  0  0  0  0  0  0  0  0  0  0  0
   25.6000   26.1300   35.4000 C   0  0  0  0  0  0  0  0  0  0  0  0
   25.4300   25.4300   34.4200 O   0  0  0  0  0  0  0  0  0  0  0  0
   26.9800   26.6300   35.7100 C   0  0  0  0  0  0  0  0  0  0  0  0
   27.3200   26.8200   36.9800 N   0  0  0  0  0  0  0  0  0  0  0  0
   28.4700   27.4000   37.3100 N   0  0  0  0  0  0  0  0  0  0  0  0
   29.4000   27.6300   36.3700 C   0  0  0  0  0  0  0  0  0  0  0  0
   30.6600   28.0500   36.8000 C   0  0  0  0  0  0  0  0  0  0  0  0
   31.5700   28.3600   35.7800 C   0  0  0  0  0  0  0  0  0  0  0  0
   31.3700   28.1000   34.4300 C   0  0  0  0  0  0  0  0  0  0  0  0
   30.1200   27.5900   34.0500 C   0  0  0  0  0  0  0  0  0  0  0  0
   29.1500   27.3400   35.0300 C   0  0  0  0  0  0  0  0  0  0  0  0
   27.8800   26.8900   34.6600 C   0  0  0  0  0  0  0  0  0  0  0  0
   27.4800   26.6100   33.3700 N   0  0  0  0  0  0  0  0  0  0  0  0
   31.0185   28.2816   38.2216 C   0  0  0  0  0  0  0  0  0  0  0  0
   30.6306   27.4994   39.3137 C   0  0  0  0  0  0  0  0  0  0  0  0
   31.1630   27.9538   40.5259 C   0  0  0  0  0  0  0  0  0  0  0  0
   30.8580   27.3780   41.8808 C   0  0  0  0  0  0  0  0  0  0  0  0
   32.0042   27.6566   42.8913 C   0  0  0  0  0  0  0  0  0  0  0  0
   32.4642   29.0625   42.8237 N   0  0  0  0  0  0  0  0  0  0  0  0
   32.8947   29.7622   44.0361 C   0  0  0  0  0  0  0  0  0  0  0  0
   32.5781   29.7149   41.5436 C   0  0  0  0  0  0  0  0  0  0  0  0
   33.1942   30.8076   41.4191 O   0  0  0  0  0  0  0  0  0  0  0  0
   31.9429   29.0829   40.3922 C   0  0  0  0  0  0  0  0  0  0  0  0
   32.0191   29.5297   38.7762 S   0  0  0  0  0  0  0  0  0  0  0  0
   33.1906   26.7157   42.6528 C   0  0  0  0  0  0  0  0  0  0  0  0
   24.6739   26.9931   37.0934 H   0  0  0  0  0  0  0  0  0  0  0  0
   23.6001   26.0040   36.0503 H   0  0  0  0  0  0  0  0  0  0  0  0
   32.5393   28.7567   36.0552 H   0  0  0  0  0  0  0  0  0  0  0  0
   32.1349   28.3164   33.6953 H   0  0  0  0  0  0  0  0  0  0  0  0
   29.9376   27.4171   32.9984 H   0  0  0  0  0  0  0  0  0  0  0  0
   28.1242   26.1386   32.6978 H   0  0  0  0  0  0  0  0  0  0  0  0
   26.5962   27.0149   32.9873 H   0  0  0  0  0  0  0  0  0  0  0  0
   30.0032   26.6211   39.2397 H   0  0  0  0  0  0  0  0  0  0  0  0
   29.9261   27.8535   42.2551 H   0  0  0  0  0  0  0  0  0  0  0  0
   30.6707   26.2851   41.7991 H   0  0  0  0  0  0  0  0  0  0  0  0
   31.6054   27.4400   43.9072 H   0  0  0  0  0  0  0  0  0  0  0  0
   32.7919   29.1166   44.9337 H   0  0  0  0  0  0  0  0  0  0  0  0
   33.9614   30.0560   43.9416 H   0  0  0  0  0  0  0  0  0  0  0  0
   32.2747   30.6716   44.1818 H   0  0  0  0  0  0  0  0  0  0  0  0
   33.9842   26.9122   43.4046 H   0  0  0  0  0  0  0  0  0  0  0  0
   33.6164   26.8683   41.6383 H   0  0  0  0  0  0  0  0  0  0  0  0
   32.8690   25.6573   42.7538 H   0  0  0  0  0  0  0  0  0  0  0  0
  1  2  1  0
  2  3  2  0
  2  4  1  0
  4  5  2  0
  5  6  1  0
  6  7  2  0
  7  8  1  0
  8  9  2  0
  9 10  1  0
 10 11  2  0
 11 12  1  0
 12 13  2  0
 13 14  1  0
  8 15  1  0
 15 16  2  0
 16 17  1  0
 17 18  1  0
 18 19  1  0
 19 20  1  0
 20 21  1  0
 20 22  1  0
 22 23  2  0
 22 24  1  0
 24 25  1  0
 19 26  1  0
 13  4  1  0
 25 15  1  0
 12  7  1  0
 24 17  2  0
  1 27  1  0
  1 28  1  0
  9 29  1  0
 10 30  1  0
 11 31  1  0
 14 32  1  0
 14 33  1  0
 16 34  1  0
 18 35  1  0
 18 36  1  0
 19 37  1  0
 21 38  1  0
 21 39  1  0
 21 40  1  0
 26 41  1  0
 26 42  1  0
 26 43  1  0
M  END
$$$$
confid_3
     RDKit          3D

 43 46  0  0  0  0  0  0  0  0999 V2000
   24.5500   26.3900   36.2500 N   0  0  0  0  0  0  0  0  0  0  0  0
   25.6000   26.1300   35.4000 C   0  0  0  0  0  0  0  0  0  0  0  0
   25.4300   25.4300   34.4200 O   0  0  0  0  0  0  0  0  0  0  0  0
   26.9800   26.6300   35.7100 C   0  0  0  0  0  0  0  0  0  0  0  0
   27.3200   26.8200   36.9800 N   0  0  0  0  0  0  0  0  0  0  0  0
   28.4700   27.4000   37.3100 N   0  0  0  0  0  0  0  0  0  0  0  0
   29.4000   27.6300   36.3700 C   0  0  0  0  0  0  0  0  0  0  0  0
   30.6600   28.0500   36.8000 C   0  0  0  0  0  0  0  0  0  0  0  0
   31.5700   28.3600   35.7800 C   0  0  0  0  0  0  0  0  0  0  0  0
   31.3700   28.1000   34.4300 C   0  0  0  0  0  0  0  0  0  0  0  0
   30.1200   27.5900   34.0500 C   0  0  0  0  0  0  0  0  0  0  0  0
   29.1500   27.3400   35.0300 C   0  0  0  0  0  0  0  0  0  0  0  0
   27.8800   26.8900   34.6600 C   0  0  0  0  0  0  0  0  0  0  0  0
   27.4800   26.6100   33.3700 N   0  0  0  0  0  0  0  0  0  0  0  0
   31.0160   28.2728   38.2257 C   0  0  0  0  0  0  0  0  0  0  0  0
   31.8862   29.2571   38.7041 C   0  0  0  0  0  0  0  0  0  0  0  0
   32.0658   29.2018   40.0914 C   0  0  0  0  0  0  0  0  0  0  0  0
   33.0070   30.0675   40.8819 C   0  0  0  0  0  0  0  0  0  0  0  0
   32.5634   30.1867   42.3658 C   0  0  0  0  0  0  0  0  0  0  0  0
   32.1920   28.8706   42.9336 N   0  0  0  0  0  0  0  0  0  0  0  0
   32.4798   28.5587   44.3353 C   0  0  0  0  0  0  0  0  0  0  0  0
   31.4590   27.9269   42.1276 C   0  0  0  0  0  0  0  0  0  0  0  0
   30.9160   26.9116   42.6408 O   0  0  0  0  0  0  0  0  0  0  0  0
   31.3769   28.1693   40.6913 C   0  0  0  0  0  0  0  0  0  0  0  0
   30.5126   27.3182   39.5318 S   0  0  0  0  0  0  0  0  0  0  0  0
   31.3888   31.1604   42.5138 C   0  0  0  0  0  0  0  0  0  0  0  0
   23.6001   26.0040   36.0503 H   0  0  0  0  0  0  0  0  0  0  0  0
   24.6739   26.9931   37.0934 H   0  0  0  0  0  0  0  0  0  0  0  0
   32.5426   28.7490   36.0527 H   0  0  0  0  0  0  0  0  0  0  0  0
   32.1356   28.3147   33.6954 H   0  0  0  0  0  0  0  0  0  0  0  0
   29.9377   27.4167   32.9984 H   0  0  0  0  0  0  0  0  0  0  0  0
   26.5962   27.0149   32.9873 H   0  0  0  0  0  0  0  0  0  0  0  0
   28.1242   26.1386   32.6979 H   0  0  0  0  0  0  0  0  0  0  0  0
   32.3731   29.9913   38.0756 H   0  0  0  0  0  0  0  0  0  0  0  0
   34.0156   29.6027   40.8451 H   0  0  0  0  0  0  0  0  0  0  0  0
   33.0816   31.0750   40.4177 H   0  0  0  0  0  0  0  0  0  0  0  0
   33.4224   30.6112   42.9315 H   0  0  0  0  0  0  0  0  0  0  0  0
   33.0057   29.3984   44.8368 H   0  0  0  0  0  0  0  0  0  0  0  0
   33.1224   27.6550   44.3919 H   0  0  0  0  0  0  0  0  0  0  0  0
   31.5312   28.3695   44.8806 H   0  0  0  0  0  0  0  0  0  0  0  0
   30.5048   30.8003   41.9456 H   0  0  0  0  0  0  0  0  0  0  0  0
   31.1092   31.2530   43.5847 H   0  0  0  0  0  0  0  0  0  0  0  0
   31.6732   32.1667   42.1394 H   0  0  0  0  0  0  0  0  0  0  0  0
  1  2  1  0
  2  3  2  0
  2  4  1  0
  4  5  2  0
  5  6  1  0
  6  7  2  0
  7  8  1  0
  8  9  2  0
  9 10  1  0
 10 11  2  0
 11 12  1  0
 12 13  2  0
 13 14  1  0
  8 15  1  0
 15 16  2  0
 16 17  1  0
 17 18  1  0
 18 19  1  0
 19 20  1  0
 20 21  1  0
 20 22  1  0
 22 23  2  0
 22 24  1  0
 24 25  1  0
 19 26  1  0
 13  4  1  0
 25 15  1  0
 12  7  1  0
 24 17  2  0
  1 27  1  0
  1 28  1  0
  9 29  1  0
 10 30  1  0
 11 31  1  0
 14 32  1  0
 14 33  1  0
 16 34  1  0
 18 35  1  0
 18 36  1  0
 19 37  1  0
 21 38  1  0
 21 39  1  0
 21 40  1  0
 26 41  1  0
 26 42  1  0
 26 43  1  0
M  END
$$$$
confid_4
     RDKit          3D

 43 46  0  0  0  0  0  0  0  0999 V2000
   24.5500   26.3900   36.2500 N   0  0  0  0  0  0  0  0  0  0  0  0
   25.6000   26.1300   35.4000 C   0  0  0  0  0  0  0  0  0  0  0  0
   25.4300   25.4300   34.4200 O   0  0  0  0  0  0  0  0  0  0  0  0
   26.9800   26.6300   35.7100 C   0  0  0  0  0  0  0  0  0  0  0  0
   27.3200   26.8200   36.9800 N   0  0  0  0  0  0  0  0  0  0  0  0
   28.4700   27.4000   37.3100 N   0  0  0  0  0  0  0  0  0  0  0  0
   29.4000   27.6300   36.3700 C   0  0  0  0  0  0  0  0  0  0  0  0
   30.6600   28.0500   36.8000 C   0  0  0  0  0  0  0  0  0  0  0  0
   31.5700   28.3600   35.7800 C   0  0  0  0  0  0  0  0  0  0  0  0
   31.3700   28.1000   34.4300 C   0  0  0  0  0  0  0  0  0  0  0  0
   30.1200   27.5900   34.0500 C   0  0  0  0  0  0  0  0  0  0  0  0
   29.1500   27.3400   35.0300 C   0  0  0  0  0  0  0  0  0  0  0  0
   27.8800   26.8900   34.6600 C   0  0  0  0  0  0  0  0  0  0  0  0
   27.4800   26.6100   33.3700 N   0  0  0  0  0  0  0  0  0  0  0  0
   31.0170   28.2810   38.2223 C   0  0  0  0  0  0  0  0  0  0  0  0
   30.6287   27.4954   39.3118 C   0  0  0  0  0  0  0  0  0  0  0  0
   31.1531   27.9509   40.5271 C   0  0  0  0  0  0  0  0  0  0  0  0
   30.9995   27.2601   41.8535 C   0  0  0  0  0  0  0  0  0  0  0  0
   31.1650   28.2529   43.0365 C   0  0  0  0  0  0  0  0  0  0  0  0
   32.3386   29.1362   42.8497 N   0  0  0  0  0  0  0  0  0  0  0  0
   33.1381   29.5618   44.0005 C   0  0  0  0  0  0  0  0  0  0  0  0
   32.6401   29.6552   41.5392 C   0  0  0  0  0  0  0  0  0  0  0  0
   33.4713   30.5897   41.3814 O   0  0  0  0  0  0  0  0  0  0  0  0
   31.9686   29.0544   40.3916 C   0  0  0  0  0  0  0  0  0  0  0  0
   32.0451   29.5064   38.7770 S   0  0  0  0  0  0  0  0  0  0  0  0
   29.9044   29.1051   43.2219 C   0  0  0  0  0  0  0  0  0  0  0  0
   23.6001   26.0040   36.0504 H   0  0  0  0  0  0  0  0  0  0  0  0
   24.6740   26.9931   37.0934 H   0  0  0  0  0  0  0  0  0  0  0  0
   32.5398   28.7554   36.0549 H   0  0  0  0  0  0  0  0  0  0  0  0
   32.1368   28.3110   33.6957 H   0  0  0  0  0  0  0  0  0  0  0  0
   29.9368   27.3914   33.0017 H   0  0  0  0  0  0  0  0  0  0  0  0
   27.4181   25.6173   33.0515 H   0  0  0  0  0  0  0  0  0  0  0  0
   27.5828   27.3393   32.6300 H   0  0  0  0  0  0  0  0  0  0  0  0
   30.0211   26.6039   39.2308 H   0  0  0  0  0  0  0  0  0  0  0  0
   30.0116   26.7530   41.9085 H   0  0  0  0  0  0  0  0  0  0  0  0
   31.7857   26.4784   41.9282 H   0  0  0  0  0  0  0  0  0  0  0  0
   31.2956   27.6446   43.9589 H   0  0  0  0  0  0  0  0  0  0  0  0
   33.0981   30.6673   44.0976 H   0  0  0  0  0  0  0  0  0  0  0  0
   34.1924   29.2433   43.8605 H   0  0  0  0  0  0  0  0  0  0  0  0
   32.7569   29.1177   44.9442 H   0  0  0  0  0  0  0  0  0  0  0  0
   30.0337   29.7844   44.0911 H   0  0  0  0  0  0  0  0  0  0  0  0
   29.0250   28.4548   43.4155 H   0  0  0  0  0  0  0  0  0  0  0  0
   29.7075   29.7189   42.3173 H   0  0  0  0  0  0  0  0  0  0  0  0
  1  2  1  0
  2  3  2  0
  2  4  1  0
  4  5  2  0
  5  6  1  0
  6  7  2  0
  7  8  1  0
  8  9  2  0
  9 10  1  0
 10 11  2  0
 11 12  1  0
 12 13  2  0
 13 14  1  0
  8 15  1  0
 15 16  2  0
 16 17  1  0
 17 18  1  0
 18 19  1  0
 19 20  1  0
 20 21  1  0
 20 22  1  0
 22 23  2  0
 22 24  1  0
 24 25  1  0
 19 26  1  0
 13  4  1  0
 25 15  1  0
 12  7  1  0
 24 17  2  0
  1 27  1  0
  1 28  1  0
  9 29  1  0
 10 30  1  0
 11 31  1  0
 14 32  1  0
 14 33  1  0
 16 34  1  0
 18 35  1  0
 18 36  1  0
 19 37  1  0
 21 38  1  0
 21 39  1  0
 21 40  1  0
 26 41  1  0
 26 42  1  0
 26 43  1  0
M  END
$$$$
confid_5
     RDKit          3D

 43 46  0  0  0  0  0  0  0  0999 V2000
   24.5500   26.3900   36.2500 N   0  0  0  0  0  0  0  0  0  0  0  0
   25.6000   26.1300   35.4000 C   0  0  0  0  0  0  0  0  0  0  0  0
   25.4300   25.4300   34.4200 O   0  0  0  0  0  0  0  0  0  0  0  0
   26.9800   26.6300   35.7100 C   0  0  0  0  0  0  0  0  0  0  0  0
   27.3200   26.8200   36.9800 N   0  0  0  0  0  0  0  0  0  0  0  0
   28.4700   27.4000   37.3100 N   0  0  0  0  0  0  0  0  0  0  0  0
   29.4000   27.6300   36.3700 C   0  0  0  0  0  0  0  0  0  0  0  0
   30.6600   28.0500   36.8000 C   0  0  0  0  0  0  0  0  0  0  0  0
   31.5700   28.3600   35.7800 C   0  0  0  0  0  0  0  0  0  0  0  0
   31.3700   28.1000   34.4300 C   0  0  0  0  0  0  0  0  0  0  0  0
   30.1200   27.5900   34.0500 C   0  0  0  0  0  0  0  0  0  0  0  0
   29.1500   27.3400   35.0300 C   0  0  0  0  0  0  0  0  0  0  0  0
   27.8800   26.8900   34.6600 C   0  0  0  0  0  0  0  0  0  0  0  0
   27.4800   26.6100   33.3700 N   0  0  0  0  0  0  0  0  0  0  0  0
   31.0175   28.3060   38.2203 C   0  0  0  0  0  0  0  0  0  0  0  0
   32.2992   28.1787   38.7640 C   0  0  0  0  0  0  0  0  0  0  0  0
   32.3568   28.5228   40.1198 C   0  0  0  0  0  0  0  0  0  0  0  0
   33.6078   28.5737   40.9520 C   0  0  0  0  0  0  0  0  0  0  0  0
   33.2955   28.4016   42.4639 C   0  0  0  0  0  0  0  0  0  0  0  0
   32.1497   29.2395   42.8852 N   0  0  0  0  0  0  0  0  0  0  0  0
   32.1255   29.8494   44.2164 C   0  0  0  0  0  0  0  0  0  0  0  0
   31.0092   29.3784   42.0148 C   0  0  0  0  0  0  0  0  0  0  0  0
   29.9260   29.8717   42.4301 O   0  0  0  0  0  0  0  0  0  0  0  0
   31.1479   28.9477   40.6278 C   0  0  0  0  0  0  0  0  0  0  0  0
   29.9777   28.8856   39.4267 S   0  0  0  0  0  0  0  0  0  0  0  0
   33.0121   26.9342   42.8050 C   0  0  0  0  0  0  0  0  0  0  0  0
   24.6739   26.9932   37.0934 H   0  0  0  0  0  0  0  0  0  0  0  0
   23.6001   26.0040   36.0503 H   0  0  0  0  0  0  0  0  0  0  0  0
   32.5292   28.7828   36.0514 H   0  0  0  0  0  0  0  0  0  0  0  0
   32.1325   28.3225   33.6945 H   0  0  0  0  0  0  0  0  0  0  0  0
   29.9370   27.4186   32.9982 H   0  0  0  0  0  0  0  0  0  0  0  0
   28.1243   26.1388   32.6978 H   0  0  0  0  0  0  0  0  0  0  0  0
   26.5962   27.0148   32.9873 H   0  0  0  0  0  0  0  0  0  0  0  0
   33.1628   27.8490   38.2011 H   0  0  0  0  0  0  0  0  0  0  0  0
   34.0860   29.5643   40.7949 H   0  0  0  0  0  0  0  0  0  0  0  0
   34.3248   27.7944   40.6133 H   0  0  0  0  0  0  0  0  0  0  0  0
   34.2083   28.7042   43.0236 H   0  0  0  0  0  0  0  0  0  0  0  0
   32.0388   30.9521   44.1200 H   0  0  0  0  0  0  0  0  0  0  0  0
   33.0503   29.6159   44.7851 H   0  0  0  0  0  0  0  0  0  0  0  0
   31.2585   29.4616   44.7917 H   0  0  0  0  0  0  0  0  0  0  0  0
   33.8866   26.3019   42.5420 H   0  0  0  0  0  0  0  0  0  0  0  0
   32.1214   26.5665   42.2524 H   0  0  0  0  0  0  0  0  0  0  0  0
   32.8221   26.8309   43.8944 H   0  0  0  0  0  0  0  0  0  0  0  0
  1  2  1  0
  2  3  2  0
  2  4  1  0
  4  5  2  0
  5  6  1  0
  6  7  2  0
  7  8  1  0
  8  9  2  0
  9 10  1  0
 10 11  2  0
 11 12  1  0
 12 13  2  0
 13 14  1  0
  8 15  1  0
 15 16  2  0
 16 17  1  0
 17 18  1  0
 18 19  1  0
 19 20  1  0
 20 21  1  0
 20 22  1  0
 22 23  2  0
 22 24  1  0
 24 25  1  0
 19 26  1  0
 13  4  1  0
 25 15  1  0
 12  7  1  0
 24 17  2  0
  1 27  1  0
  1 28  1  0
  9 29  1  0
 10 30  1  0
 11 31  1  0
 14 32  1  0
 14 33  1  0
 16 34  1  0
 18 35  1  0
 18 36  1  0
 19 37  1  0
 21 38  1  0
 21 39  1  0
 21 40  1  0
 26 41  1  0
 26 42  1  0
 26 43  1  0
M  END
$$$$
confid_6
     RDKit          3D

 43 46  0  0  0  0  0  0  0  0999 V2000
   24.5500   26.3900   36.2500 N   0  0  0  0  0  0  0  0  0  0  0  0
   25.6000   26.1300   35.4000 C   0  0  0  0  0  0  0  0  0  0  0  0
   25.4300   25.4300   34.4200 O   0  0  0  0  0  0  0  0  0  0  0  0
   26.9800   26.6300   35.7100 C   0  0  0  0  0  0  0  0  0  0  0  0
   27.3200   26.8200   36.9800 N   0  0  0  0  0  0  0  0  0  0  0  0
   28.4700   27.4000   37.3100 N   0  0  0  0  0  0  0  0  0  0  0  0
   29.4000   27.6300   36.3700 C   0  0  0  0  0  0  0  0  0  0  0  0
   30.6600   28.0500   36.8000 C   0  0  0  0  0  0  0  0  0  0  0  0
   31.5700   28.3600   35.7800 C   0  0  0  0  0  0  0  0  0  0  0  0
   31.3700   28.1000   34.4300 C   0  0  0  0  0  0  0  0  0  0  0  0
   30.1200   27.5900   34.0500 C   0  0  0  0  0  0  0  0  0  0  0  0
   29.1500   27.3400   35.0300 C   0  0  0  0  0  0  0  0  0  0  0  0
   27.8800   26.8900   34.6600 C   0  0  0  0  0  0  0  0  0  0  0  0
   27.4800   26.6100   33.3700 N   0  0  0  0  0  0  0  0  0  0  0  0
   31.0176   28.3061   38.2204 C   0  0  0  0  0  0  0  0  0  0  0  0
   32.2994   28.1807   38.7640 C   0  0  0  0  0  0  0  0  0  0  0  0
   32.3563   28.5245   40.1201 C   0  0  0  0  0  0  0  0  0  0  0  0
   33.6038   28.5733   40.9524 C   0  0  0  0  0  0  0  0  0  0  0  0
   33.2753   28.3921   42.4588 C   0  0  0  0  0  0  0  0  0  0  0  0
   32.1602   29.2837   42.8834 N   0  0  0  0  0  0  0  0  0  0  0  0
   32.0686   29.7862   44.2621 C   0  0  0  0  0  0  0  0  0  0  0  0
   31.0084   29.3816   42.0151 C   0  0  0  0  0  0  0  0  0  0  0  0
   29.9060   29.8306   42.4306 O   0  0  0  0  0  0  0  0  0  0  0  0
   31.1486   28.9484   40.6284 C   0  0  0  0  0  0  0  0  0  0  0  0
   29.9779   28.8836   39.4276 S   0  0  0  0  0  0  0  0  0  0  0  0
   34.5562   28.5926   43.2852 C   0  0  0  0  0  0  0  0  0  0  0  0
   24.6739   26.9932   37.0934 H   0  0  0  0  0  0  0  0  0  0  0  0
   23.6001   26.0040   36.0503 H   0  0  0  0  0  0  0  0  0  0  0  0
   32.5292   28.7828   36.0513 H   0  0  0  0  0  0  0  0  0  0  0  0
   32.1325   28.3225   33.6945 H   0  0  0  0  0  0  0  0  0  0  0  0
   29.9370   27.4186   32.9982 H   0  0  0  0  0  0  0  0  0  0  0  0
   28.1243   26.1388   32.6978 H   0  0  0  0  0  0  0  0  0  0  0  0
   26.5962   27.0148   32.9873 H   0  0  0  0  0  0  0  0  0  0  0  0
   33.1633   27.8517   38.2011 H   0  0  0  0  0  0  0  0  0  0  0  0
   34.3011   27.7728   40.6218 H   0  0  0  0  0  0  0  0  0  0  0  0
   34.0932   29.5579   40.7883 H   0  0  0  0  0  0  0  0  0  0  0  0
   32.9455   27.3395   42.6076 H   0  0  0  0  0  0  0  0  0  0  0  0
   31.9400   28.9348   44.9630 H   0  0  0  0  0  0  0  0  0  0  0  0
   32.9823   30.3556   44.5288 H   0  0  0  0  0  0  0  0  0  0  0  0
   31.2150   30.4843   44.3885 H   0  0  0  0  0  0  0  0  0  0  0  0
   34.9035   29.6457   43.2175 H   0  0  0  0  0  0  0  0  0  0  0  0
   34.3800   28.3270   44.3487 H   0  0  0  0  0  0  0  0  0  0  0  0
   35.3630   27.9289   42.9070 H   0  0  0  0  0  0  0  0  0  0  0  0
  1  2  1  0
  2  3  2  0
  2  4  1  0
  4  5  2  0
  5  6  1  0
  6  7  2  0
  7  8  1  0
  8  9  2  0
  9 10  1  0
 10 11  2  0
 11 12  1  0
 12 13  2  0
 13 14  1  0
  8 15  1  0
 15 16  2  0
 16 17  1  0
 17 18  1  0
 18 19  1  0
 19 20  1  0
 20 21  1  0
 20 22  1  0
 22 23  2  0
 22 24  1  0
 24 25  1  0
 19 26  1  0
 13  4  1  0
 25 15  1  0
 12  7  1  0
 24 17  2  0
  1 27  1  0
  1 28  1  0
  9 29  1  0
 10 30  1  0
 11 31  1  0
 14 32  1  0
 14 33  1  0
 16 34  1  0
 18 35  1  0
 18 36  1  0
 19 37  1  0
 21 38  1  0
 21 39  1  0
 21 40  1  0
 26 41  1  0
 26 42  1  0
 26 43  1  0
M  END
$$$$
confid_7
     RDKit          3D

 43 46  0  0  0  0  0  0  0  0999 V2000
   24.5500   26.3900   36.2500 N   0  0  0  0  0  0  0  0  0  0  0  0
   25.6000   26.1300   35.4000 C   0  0  0  0  0  0  0  0  0  0  0  0
   25.4300   25.4300   34.4200 O   0  0  0  0  0  0  0  0  0  0  0  0
   26.9800   26.6300   35.7100 C   0  0  0  0  0  0  0  0  0  0  0  0
   27.3200   26.8200   36.9800 N   0  0  0  0  0  0  0  0  0  0  0  0
   28.4700   27.4000   37.3100 N   0  0  0  0  0  0  0  0  0  0  0  0
   29.4000   27.6300   36.3700 C   0  0  0  0  0  0  0  0  0  0  0  0
   30.6600   28.0500   36.8000 C   0  0  0  0  0  0  0  0  0  0  0  0
   31.5700   28.3600   35.7800 C   0  0  0  0  0  0  0  0  0  0  0  0
   31.3700   28.1000   34.4300 C   0  0  0  0  0  0  0  0  0  0  0  0
   30.1200   27.5900   34.0500 C   0  0  0  0  0  0  0  0  0  0  0  0
   29.1500   27.3400   35.0300 C   0  0  0  0  0  0  0  0  0  0  0  0
   27.8800   26.8900   34.6600 C   0  0  0  0  0  0  0  0  0  0  0  0
   27.4800   26.6100   33.3700 N   0  0  0  0  0  0  0  0  0  0  0  0
   31.0171   28.2811   38.2223 C   0  0  0  0  0  0  0  0  0  0  0  0
   30.6283   27.4966   39.3123 C   0  0  0  0  0  0  0  0  0  0  0  0
   31.1539   27.9522   40.5274 C   0  0  0  0  0  0  0  0  0  0  0  0
   30.9978   27.2662   41.8525 C   0  0  0  0  0  0  0  0  0  0  0  0
   31.1612   28.2730   43.0227 C   0  0  0  0  0  0  0  0  0  0  0  0
   32.3800   29.1121   42.8521 N   0  0  0  0  0  0  0  0  0  0  0  0
   33.1037   29.6493   44.0137 C   0  0  0  0  0  0  0  0  0  0  0  0
   32.6476   29.6524   41.5380 C   0  0  0  0  0  0  0  0  0  0  0  0
   33.4453   30.6144   41.3709 O   0  0  0  0  0  0  0  0  0  0  0  0
   31.9713   29.0527   40.3920 C   0  0  0  0  0  0  0  0  0  0  0  0
   32.0469   29.5049   38.7770 S   0  0  0  0  0  0  0  0  0  0  0  0
   31.1370   27.5086   44.3565 C   0  0  0  0  0  0  0  0  0  0  0  0
   24.6739   26.9931   37.0934 H   0  0  0  0  0  0  0  0  0  0  0  0
   23.6001   26.0040   36.0503 H   0  0  0  0  0  0  0  0  0  0  0  0
   32.5394   28.7566   36.0547 H   0  0  0  0  0  0  0  0  0  0  0  0
   32.1349   28.3164   33.6953 H   0  0  0  0  0  0  0  0  0  0  0  0
   29.9376   27.4171   32.9984 H   0  0  0  0  0  0  0  0  0  0  0  0
   28.1242   26.1386   32.6978 H   0  0  0  0  0  0  0  0  0  0  0  0
   26.5962   27.0149   32.9873 H   0  0  0  0  0  0  0  0  0  0  0  0
   30.0191   26.6061   39.2321 H   0  0  0  0  0  0  0  0  0  0  0  0
   29.9951   26.7885   41.9060 H   0  0  0  0  0  0  0  0  0  0  0  0
   31.7719   26.4718   41.9266 H   0  0  0  0  0  0  0  0  0  0  0  0
   30.2774   28.9494   43.0114 H   0  0  0  0  0  0  0  0  0  0  0  0
   33.4377   28.8258   44.6773 H   0  0  0  0  0  0  0  0  0  0  0  0
   32.4441   30.3412   44.5783 H   0  0  0  0  0  0  0  0  0  0  0  0
   34.0190   30.1984   43.7090 H   0  0  0  0  0  0  0  0  0  0  0  0
   31.1059   28.2164   45.2113 H   0  0  0  0  0  0  0  0  0  0  0  0
   32.0303   26.8545   44.4477 H   0  0  0  0  0  0  0  0  0  0  0  0
   30.2264   26.8750   44.4177 H   0  0  0  0  0  0  0  0  0  0  0  0
  1  2  1  0
  2  3  2  0
  2  4  1  0
  4  5  2  0
  5  6  1  0
  6  7  2  0
  7  8  1  0
  8  9  2  0
  9 10  1  0
 10 11  2  0
 11 12  1  0
 12 13  2  0
 13 14  1  0
  8 15  1  0
 15 16  2  0
 16 17  1  0
 17 18  1  0
 18 19  1  0
 19 20  1  0
 20 21  1  0
 20 22  1  0
 22 23  2  0
 22 24  1  0
 24 25  1  0
 19 26  1  0
 13  4  1  0
 25 15  1  0
 12  7  1  0
 24 17  2  0
  1 27  1  0
  1 28  1  0
  9 29  1  0
 10 30  1  0
 11 31  1  0
 14 32  1  0
 14 33  1  0
 16 34  1  0
 18 35  1  0
 18 36  1  0
 19 37  1  0
 21 38  1  0
 21 39  1  0
 21 40  1  0
 26 41  1  0
 26 42  1  0
 26 43  1  0
M  END
$$$$
confid_8
     RDKit          3D

 43 46  0  0  0  0  0  0  0  0999 V2000
   24.5500   26.3900   36.2500 N   0  0  0  0  0  0  0  0  0  0  0  0
   25.6000   26.1300   35.4000 C   0  0  0  0  0  0  0  0  0  0  0  0
   25.4300   25.4300   34.4200 O   0  0  0  0  0  0  0  0  0  0  0  0
   26.9800   26.6300   35.7100 C   0  0  0  0  0  0  0  0  0  0  0  0
   27.3200   26.8200   36.9800 N   0  0  0  0  0  0  0  0  0  0  0  0
   28.4700   27.4000   37.3100 N   0  0  0  0  0  0  0  0  0  0  0  0
   29.4000   27.6300   36.3700 C   0  0  0  0  0  0  0  0  0  0  0  0
   30.6600   28.0500   36.8000 C   0  0  0  0  0  0  0  0  0  0  0  0
   31.5700   28.3600   35.7800 C   0  0  0  0  0  0  0  0  0  0  0  0
   31.3700   28.1000   34.4300 C   0  0  0  0  0  0  0  0  0  0  0  0
   30.1200   27.5900   34.0500 C   0  0  0  0  0  0  0  0  0  0  0  0
   29.1500   27.3400   35.0300 C   0  0  0  0  0  0  0  0  0  0  0  0
   27.8800   26.8900   34.6600 C   0  0  0  0  0  0  0  0  0  0  0  0
   27.4800   26.6100   33.3700 N   0  0  0  0  0  0  0  0  0  0  0  0
   31.0163   28.2724   38.2257 C   0  0  0  0  0  0  0  0  0  0  0  0
   31.8882   29.2550   38.7044 C   0  0  0  0  0  0  0  0  0  0  0  0
   32.0673   29.1990   40.0920 C   0  0  0  0  0  0  0  0  0  0  0  0
   33.0049   30.0635   40.8825 C   0  0  0  0  0  0  0  0  0  0  0  0
   32.5438   30.1782   42.3604 C   0  0  0  0  0  0  0  0  0  0  0  0
   32.2298   28.8414   42.9375 N   0  0  0  0  0  0  0  0  0  0  0  0
   32.3950   28.5730   44.3735 C   0  0  0  0  0  0  0  0  0  0  0  0
   31.4613   27.9224   42.1281 C   0  0  0  0  0  0  0  0  0  0  0  0
   30.8752   26.9283   42.6360 O   0  0  0  0  0  0  0  0  0  0  0  0
   31.3785   28.1681   40.6919 C   0  0  0  0  0  0  0  0  0  0  0  0
   30.5116   27.3192   39.5321 S   0  0  0  0  0  0  0  0  0  0  0  0
   33.6041   30.9485   43.1644 C   0  0  0  0  0  0  0  0  0  0  0  0
   24.6740   26.9931   37.0934 H   0  0  0  0  0  0  0  0  0  0  0  0
   23.6001   26.0040   36.0504 H   0  0  0  0  0  0  0  0  0  0  0  0
   32.5431   28.7478   36.0528 H   0  0  0  0  0  0  0  0  0  0  0  0
   32.1375   28.3093   33.6959 H   0  0  0  0  0  0  0  0  0  0  0  0
   29.9370   27.3910   33.0018 H   0  0  0  0  0  0  0  0  0  0  0  0
   27.5828   27.3393   32.6300 H   0  0  0  0  0  0  0  0  0  0  0  0
   27.4181   25.6173   33.0515 H   0  0  0  0  0  0  0  0  0  0  0  0
   32.3759   29.9887   38.0762 H   0  0  0  0  0  0  0  0  0  0  0  0
   33.0505   31.0756   40.4244 H   0  0  0  0  0  0  0  0  0  0  0  0
   34.0186   29.6094   40.8372 H   0  0  0  0  0  0  0  0  0  0  0  0
   31.6103   30.7840   42.3762 H   0  0  0  0  0  0  0  0  0  0  0  0
   33.4433   28.7588   44.6847 H   0  0  0  0  0  0  0  0  0  0  0  0
   32.1769   27.5131   44.6206 H   0  0  0  0  0  0  0  0  0  0  0  0
   31.7102   29.2235   44.9570 H   0  0  0  0  0  0  0  0  0  0  0  0
   34.5465   30.3636   43.2284 H   0  0  0  0  0  0  0  0  0  0  0  0
   33.2337   31.1694   44.1875 H   0  0  0  0  0  0  0  0  0  0  0  0
   33.8237   31.9211   42.6742 H   0  0  0  0  0  0  0  0  0  0  0  0
  1  2  1  0
  2  3  2  0
  2  4  1  0
  4  5  2  0
  5  6  1  0
  6  7  2  0
  7  8  1  0
  8  9  2  0
  9 10  1  0
 10 11  2  0
 11 12  1  0
 12 13  2  0
 13 14  1  0
  8 15  1  0
 15 16  2  0
 16 17  1  0
 17 18  1  0
 18 19  1  0
 19 20  1  0
 20 21  1  0
 20 22  1  0
 22 23  2  0
 22 24  1  0
 24 25  1  0
 19 26  1  0
 13  4  1  0
 25 15  1  0
 12  7  1  0
 24 17  2  0
  1 27  1  0
  1 28  1  0
  9 29  1  0
 10 30  1  0
 11 31  1  0
 14 32  1  0
 14 33  1  0
 16 34  1  0
 18 35  1  0
 18 36  1  0
 19 37  1  0
 21 38  1  0
 21 39  1  0
 21 40  1  0
 26 41  1  0
 26 42  1  0
 26 43  1  0
M  END
$$$$
