confid_0
     RDKit          3D

 49 53  0  0  0  0  0  0  0  0999 V2000
   24.6900   26.1200   35.5300 N   0  0  0  0  0  0  0  0  0  0  0  0
   25.6600   25.6700   34.6600 C   0  0  0  0  0  0  0  0  0  0  0  0
   25.2400   25.0100   33.7200 O   0  0  0  0  0  0  0  0  0  0  0  0
   27.0300   26.2200   34.8800 C   0  0  0  0  0  0  0  0  0  0  0  0
   27.3500   26.7300   36.0700 N   0  0  0  0  0  0  0  0  0  0  0  0
   28.5700   27.1800   36.3300 N   0  0  0  0  0  0  0  0  0  0  0  0
   29.5300   27.1100   35.3900 C   0  0  0  0  0  0  0  0  0  0  0  0
   30.8300   27.5700   35.6500 C   0  0  0  0  0  0  0  0  0  0  0  0
   31.8500   27.5400   34.6900 C   0  0  0  0  0  0  0  0  0  0  0  0
   31.5100   27.1200   33.4000 C   0  0  0  0  0  0  0  0  0  0  0  0
   30.2200   26.6300   33.1100 C   0  0  0  0  0  0  0  0  0  0  0  0
   29.2400   26.6600   34.1000 C   0  0  0  0  0  0  0  0  0  0  0  0
   27.9300   26.2600   33.8100 C   0  0  0  0  0  0  0  0  0  0  0  0
   27.5200   25.7100   32.6100 N   0  0  0  0  0  0  0  0  0  0  0  0
   23.3585   25.5870   35.5560 C   0  0  0  0  0  0  0  0  0  0  0  0
   23.1813   24.3366   35.8977 N   0  0  0  0  0  0  0  0  0  0  0  0
   21.8992   23.7068   36.0047 C   0  0  0  0  0  0  0  0  0  0  0  0
   21.0938   23.6555   34.9488 C   0  0  0  0  0  0  0  0  0  0  0  0
   19.6575   23.3869   34.5992 C   0  0  0  0  0  0  0  0  0  0  0  0
   19.7763   23.7629   33.2604 O   0  0  0  0  0  0  0  0  0  0  0  0
   21.1398   23.9689   33.4791 C   0  0  0  0  0  0  0  0  0  0  0  0
   21.6019   25.3982   33.1291 C   0  0  0  0  0  0  0  0  0  0  0  0
   21.3609   26.4194   34.2182 C   0  0  0  0  0  0  0  0  0  0  0  0
   20.2906   27.3179   34.0825 C   0  0  0  0  0  0  0  0  0  0  0  0
   20.0741   28.3254   35.0240 C   0  0  0  0  0  0  0  0  0  0  0  0
   20.9439   28.4389   36.1214 C   0  0  0  0  0  0  0  0  0  0  0  0
   22.0003   27.5423   36.2794 C   0  0  0  0  0  0  0  0  0  0  0  0
   22.2134   26.5167   35.3475 C   0  0  0  0  0  0  0  0  0  0  0  0
   18.9897   29.1919   34.8308 O   0  0  0  0  0  0  0  0  0  0  0  0
   18.7410   30.3505   35.6236 C   0  0  0  0  0  0  0  0  0  0  0  0
   24.8647   26.9814   36.1036 H   0  0  0  0  0  0  0  0  0  0  0  0
   31.0664   27.9447   36.6385 H   0  0  0  0  0  0  0  0  0  0  0  0
   32.8482   27.8902   34.9207 H   0  0  0  0  0  0  0  0  0  0  0  0
   32.2640   27.1263   32.6230 H   0  0  0  0  0  0  0  0  0  0  0  0
   30.0098   26.3032   32.1005 H   0  0  0  0  0  0  0  0  0  0  0  0
   28.1306   25.0407   32.0916 H   0  0  0  0  0  0  0  0  0  0  0  0
   26.6928   26.1010   32.1058 H   0  0  0  0  0  0  0  0  0  0  0  0
   21.5521   23.3563   36.9658 H   0  0  0  0  0  0  0  0  0  0  0  0
   18.9622   24.0651   35.1455 H   0  0  0  0  0  0  0  0  0  0  0  0
   19.4019   22.3092   34.7017 H   0  0  0  0  0  0  0  0  0  0  0  0
   21.7412   23.2078   32.9255 H   0  0  0  0  0  0  0  0  0  0  0  0
   22.6937   25.3663   32.9227 H   0  0  0  0  0  0  0  0  0  0  0  0
   21.1174   25.7110   32.1780 H   0  0  0  0  0  0  0  0  0  0  0  0
   19.6255   27.2519   33.2300 H   0  0  0  0  0  0  0  0  0  0  0  0
   20.8035   29.2083   36.8661 H   0  0  0  0  0  0  0  0  0  0  0  0
   22.6465   27.6447   37.1424 H   0  0  0  0  0  0  0  0  0  0  0  0
   17.8579   30.8861   35.2186 H   0  0  0  0  0  0  0  0  0  0  0  0
   18.5238   30.0586   36.6746 H   0  0  0  0  0  0  0  0  0  0  0  0
   19.6146   31.0318   35.5886 H   0  0  0  0  0  0  0  0  0  0  0  0
  1  2  1  0
  2  3  2  0
  2  4  1  0
  4  5  2  0
  5  6  1  0
  6  7  2  0
  7  8  1  0
  8  9  2  0
  9 10  1  0
 10 11  2  0
 11 12  1  0
 12 13  2  0
 13 14  1  0
  1 15  1  0
 15 16  2  0
 16 17  1  0
 17 18  2  0
 18 19  1  0
 19 20  1  0
 20 21  1  0
 21 22  1  0
 22 23  1  0
 23 24  2  0
 24 25  1  0
 25 26  2  0
 26 27  1  0
 27 28  2  0
 25 29  1  0
 29 30  1  0
 13  4  1  0
 28 15  1  0
 12  7  1  0
 21 18  1  0
 28 23  1  0
  1 31  1  0
  8 32  1  0
  9 33  1  0
 10 34  1  0
 11 35  1  0
 14 36  1  0
 14 37  1  0
 17 38  1  0
 19 39  1  0
 19 40  1  0
 21 41  1  0
 22 42  1  0
 22 43  1  0
 24 44  1  0
 26 45  1  0
 27 46  1  0
 30 47  1  0
 30 48  1  0
 30 49  1  0
M  END
$$$$
