confid_0
     RDKit          3D

 44 48  0  0  0  0  0  0  0  0999 V2000
   24.4800   26.1000   36.1300 N   0  0  0  0  0  0  0  0  0  0  0  0
   25.2500   26.2500   34.9900 C   0  0  0  0  0  0  0  0  0  0  0  0
   24.7400   25.7600   33.9900 O   0  0  0  0  0  0  0  0  0  0  0  0
   26.5900   26.8900   34.9600 C   0  0  0  0  0  0  0  0  0  0  0  0
   27.0600   27.2400   36.1600 N   0  0  0  0  0  0  0  0  0  0  0  0
   28.3000   27.7100   36.2400 N   0  0  0  0  0  0  0  0  0  0  0  0
   29.0500   27.9600   35.1500 C   0  0  0  0  0  0  0  0  0  0  0  0
   30.3400   28.4900   35.2600 C   0  0  0  0  0  0  0  0  0  0  0  0
   31.1100   28.8200   34.1400 C   0  0  0  0  0  0  0  0  0  0  0  0
   30.5200   28.6700   32.8800 C   0  0  0  0  0  0  0  0  0  0  0  0
   29.2900   28.0200   32.7700 C   0  0  0  0  0  0  0  0  0  0  0  0
   28.5200   27.7100   33.8900 C   0  0  0  0  0  0  0  0  0  0  0  0
   27.2700   27.0800   33.7600 C   0  0  0  0  0  0  0  0  0  0  0  0
   26.7500   26.8800   32.4900 N   0  0  0  0  0  0  0  0  0  0  0  0
   23.4626   25.0989   36.3283 C   0  0  0  0  0  0  0  0  0  0  0  0
   23.4237   24.0425   35.5595 N   0  0  0  0  0  0  0  0  0  0  0  0
   22.4858   22.9674   35.6918 C   0  0  0  0  0  0  0  0  0  0  0  0
   21.1790   23.2010   35.6732 C   0  0  0  0  0  0  0  0  0  0  0  0
   19.8883   22.4968   35.9645 C   0  0  0  0  0  0  0  0  0  0  0  0
   19.0861   23.6199   35.7758 O   0  0  0  0  0  0  0  0  0  0  0  0
   20.2260   24.3386   35.4249 C   0  0  0  0  0  0  0  0  0  0  0  0
   20.4283   25.5990   36.2939 C   0  0  0  0  0  0  0  0  0  0  0  0
   21.2791   25.3905   37.5164 C   0  0  0  0  0  0  0  0  0  0  0  0
   22.5919   25.2093   37.5241 C   0  0  0  0  0  0  0  0  0  0  0  0
   23.0845   25.0856   38.9260 C   0  0  0  0  0  0  0  0  0  0  0  0
   21.7963   25.2020   39.7561 C   0  0  0  0  0  0  0  0  0  0  0  0
   20.7650   25.3877   38.7979 O   0  0  0  0  0  0  0  0  0  0  0  0
   24.6467   26.7698   36.9145 H   0  0  0  0  0  0  0  0  0  0  0  0
   30.7579   28.6629   36.2441 H   0  0  0  0  0  0  0  0  0  0  0  0
   32.0983   29.2479   34.2471 H   0  0  0  0  0  0  0  0  0  0  0  0
   31.0668   28.9544   31.9901 H   0  0  0  0  0  0  0  0  0  0  0  0
   28.9258   27.8587   31.7655 H   0  0  0  0  0  0  0  0  0  0  0  0
   27.2969   26.3789   31.7553 H   0  0  0  0  0  0  0  0  0  0  0  0
   25.7672   27.1499   32.2659 H   0  0  0  0  0  0  0  0  0  0  0  0
   22.8480   21.9607   35.8500 H   0  0  0  0  0  0  0  0  0  0  0  0
   19.8388   22.1388   37.0164 H   0  0  0  0  0  0  0  0  0  0  0  0
   19.6646   21.7027   35.2180 H   0  0  0  0  0  0  0  0  0  0  0  0
   20.1946   24.6049   34.3435 H   0  0  0  0  0  0  0  0  0  0  0  0
   20.9079   26.3852   35.6711 H   0  0  0  0  0  0  0  0  0  0  0  0
   19.4378   25.9975   36.6016 H   0  0  0  0  0  0  0  0  0  0  0  0
   23.7899   25.9103   39.1645 H   0  0  0  0  0  0  0  0  0  0  0  0
   23.5712   24.0984   39.0785 H   0  0  0  0  0  0  0  0  0  0  0  0
   21.8393   26.0781   40.4380 H   0  0  0  0  0  0  0  0  0  0  0  0
   21.6092   24.2728   40.3359 H   0  0  0  0  0  0  0  0  0  0  0  0
  1  2  1  0
  2  3  2  0
  2  4  1  0
  4  5  2  0
  5  6  1  0
  6  7  2  0
  7  8  1  0
  8  9  2  0
  9 10  1  0
 10 11  2  0
 11 12  1  0
 12 13  2  0
 13 14  1  0
  1 15  1  0
 15 16  2  0
 16 17  1  0
 17 18  2  0
 18 19  1  0
 19 20  1  0
 20 21  1  0
 21 22  1  0
 22 23  1  0
 23 24  2  0
 24 25  1  0
 25 26  1  0
 26 27  1  0
 13  4  1  0
 24 15  1  0
 12  7  1  0
 21 18  1  0
 27 23  1  0
  1 28  1  0
  8 29  1  0
  9 30  1  0
 10 31  1  0
 11 32  1  0
 14 33  1  0
 14 34  1  0
 17 35  1  0
 19 36  1  0
 19 37  1  0
 21 38  1  0
 22 39  1  0
 22 40  1  0
 25 41  1  0
 25 42  1  0
 26 43  1  0
 26 44  1  0
M  END
$$$$
confid_1
     RDKit          3D

 44 48  0  0  0  0  0  0  0  0999 V2000
   24.4800   26.1000   36.1300 N   0  0  0  0  0  0  0  0  0  0  0  0
   25.2500   26.2500   34.9900 C   0  0  0  0  0  0  0  0  0  0  0  0
   24.7400   25.7600   33.9900 O   0  0  0  0  0  0  0  0  0  0  0  0
   26.5900   26.8900   34.9600 C   0  0  0  0  0  0  0  0  0  0  0  0
   27.0600   27.2400   36.1600 N   0  0  0  0  0  0  0  0  0  0  0  0
   28.3000   27.7100   36.2400 N   0  0  0  0  0  0  0  0  0  0  0  0
   29.0500   27.9600   35.1500 C   0  0  0  0  0  0  0  0  0  0  0  0
   30.3400   28.4900   35.2600 C   0  0  0  0  0  0  0  0  0  0  0  0
   31.1100   28.8200   34.1400 C   0  0  0  0  0  0  0  0  0  0  0  0
   30.5200   28.6700   32.8800 C   0  0  0  0  0  0  0  0  0  0  0  0
   29.2900   28.0200   32.7700 C   0  0  0  0  0  0  0  0  0  0  0  0
   28.5200   27.7100   33.8900 C   0  0  0  0  0  0  0  0  0  0  0  0
   27.2700   27.0800   33.7600 C   0  0  0  0  0  0  0  0  0  0  0  0
   26.7500   26.8800   32.4900 N   0  0  0  0  0  0  0  0  0  0  0  0
   23.5624   25.0115   36.3794 C   0  0  0  0  0  0  0  0  0  0  0  0
   23.6556   23.9472   35.6231 N   0  0  0  0  0  0  0  0  0  0  0  0
   22.9662   22.6928   35.4756 C   0  0  0  0  0  0  0  0  0  0  0  0
   21.6980   22.4806   35.8057 C   0  0  0  0  0  0  0  0  0  0  0  0
   20.5667   21.6698   35.2377 C   0  0  0  0  0  0  0  0  0  0  0  0
   19.5730   22.3127   35.9689 O   0  0  0  0  0  0  0  0  0  0  0  0
   20.5743   23.0080   36.6363 C   0  0  0  0  0  0  0  0  0  0  0  0
   20.4626   24.5228   36.5400 C   0  0  0  0  0  0  0  0  0  0  0  0
   21.3540   25.0568   37.6092 C   0  0  0  0  0  0  0  0  0  0  0  0
   22.6790   25.1302   37.5716 C   0  0  0  0  0  0  0  0  0  0  0  0
   23.1796   25.5926   38.9093 C   0  0  0  0  0  0  0  0  0  0  0  0
   21.9077   25.6928   39.7577 C   0  0  0  0  0  0  0  0  0  0  0  0
   20.8606   25.3798   38.8588 O   0  0  0  0  0  0  0  0  0  0  0  0
   24.5830   26.8428   36.8544 H   0  0  0  0  0  0  0  0  0  0  0  0
   30.7579   28.6629   36.2441 H   0  0  0  0  0  0  0  0  0  0  0  0
   32.0983   29.2479   34.2470 H   0  0  0  0  0  0  0  0  0  0  0  0
   31.0669   28.9542   31.9900 H   0  0  0  0  0  0  0  0  0  0  0  0
   28.9259   27.8588   31.7655 H   0  0  0  0  0  0  0  0  0  0  0  0
   25.7668   27.1489   32.2661 H   0  0  0  0  0  0  0  0  0  0  0  0
   27.2972   26.3793   31.7551 H   0  0  0  0  0  0  0  0  0  0  0  0
   23.3874   22.0055   34.7543 H   0  0  0  0  0  0  0  0  0  0  0  0
   20.6434   20.5914   35.5024 H   0  0  0  0  0  0  0  0  0  0  0  0
   20.4363   21.8449   34.1472 H   0  0  0  0  0  0  0  0  0  0  0  0
   20.6414   22.6441   37.6909 H   0  0  0  0  0  0  0  0  0  0  0  0
   20.7563   24.9065   35.5377 H   0  0  0  0  0  0  0  0  0  0  0  0
   19.4166   24.8341   36.7477 H   0  0  0  0  0  0  0  0  0  0  0  0
   23.8876   24.8492   39.3346 H   0  0  0  0  0  0  0  0  0  0  0  0
   23.6619   26.5894   38.8454 H   0  0  0  0  0  0  0  0  0  0  0  0
   21.9232   24.9547   40.5881 H   0  0  0  0  0  0  0  0  0  0  0  0
   21.7686   26.7199   40.1586 H   0  0  0  0  0  0  0  0  0  0  0  0
  1  2  1  0
  2  3  2  0
  2  4  1  0
  4  5  2  0
  5  6  1  0
  6  7  2  0
  7  8  1  0
  8  9  2  0
  9 10  1  0
 10 11  2  0
 11 12  1  0
 12 13  2  0
 13 14  1  0
  1 15  1  0
 15 16  2  0
 16 17  1  0
 17 18  2  0
 18 19  1  0
 19 20  1  0
 20 21  1  0
 21 22  1  0
 22 23  1  0
 23 24  2  0
 24 25  1  0
 25 26  1  0
 26 27  1  0
 13  4  1  0
 24 15  1  0
 12  7  1  0
 21 18  1  0
 27 23  1  0
  1 28  1  0
  8 29  1  0
  9 30  1  0
 10 31  1  0
 11 32  1  0
 14 33  1  0
 14 34  1  0
 17 35  1  0
 19 36  1  0
 19 37  1  0
 21 38  1  0
 22 39  1  0
 22 40  1  0
 25 41  1  0
 25 42  1  0
 26 43  1  0
 26 44  1  0
M  END
$$$$
confid_2
     RDKit          3D

 44 48  0  0  0  0  0  0  0  0999 V2000
   24.4800   26.1000   36.1300 N   0  0  0  0  0  0  0  0  0  0  0  0
   25.2500   26.2500   34.9900 C   0  0  0  0  0  0  0  0  0  0  0  0
   24.7400   25.7600   33.9900 O   0  0  0  0  0  0  0  0  0  0  0  0
   26.5900   26.8900   34.9600 C   0  0  0  0  0  0  0  0  0  0  0  0
   27.0600   27.2400   36.1600 N   0  0  0  0  0  0  0  0  0  0  0  0
   28.3000   27.7100   36.2400 N   0  0  0  0  0  0  0  0  0  0  0  0
   29.0500   27.9600   35.1500 C   0  0  0  0  0  0  0  0  0  0  0  0
   30.3400   28.4900   35.2600 C   0  0  0  0  0  0  0  0  0  0  0  0
   31.1100   28.8200   34.1400 C   0  0  0  0  0  0  0  0  0  0  0  0
   30.5200   28.6700   32.8800 C   0  0  0  0  0  0  0  0  0  0  0  0
   29.2900   28.0200   32.7700 C   0  0  0  0  0  0  0  0  0  0  0  0
   28.5200   27.7100   33.8900 C   0  0  0  0  0  0  0  0  0  0  0  0
   27.2700   27.0800   33.7600 C   0  0  0  0  0  0  0  0  0  0  0  0
   26.7500   26.8800   32.4900 N   0  0  0  0  0  0  0  0  0  0  0  0
   23.4014   25.1585   36.2830 C   0  0  0  0  0  0  0  0  0  0  0  0
   23.3997   24.0495   35.5897 N   0  0  0  0  0  0  0  0  0  0  0  0
   22.3856   23.0402   35.6693 C   0  0  0  0  0  0  0  0  0  0  0  0
   21.1104   23.3472   35.4585 C   0  0  0  0  0  0  0  0  0  0  0  0
   19.7470   22.7389   35.5934 C   0  0  0  0  0  0  0  0  0  0  0  0
   19.0561   23.8927   35.2280 O   0  0  0  0  0  0  0  0  0  0  0  0
   20.2797   24.5215   35.0122 C   0  0  0  0  0  0  0  0  0  0  0  0
   20.4357   25.8208   35.8348 C   0  0  0  0  0  0  0  0  0  0  0  0
   21.1139   25.6459   37.1666 C   0  0  0  0  0  0  0  0  0  0  0  0
   22.4023   25.3954   37.3517 C   0  0  0  0  0  0  0  0  0  0  0  0
   22.7055   25.3185   38.8095 C   0  0  0  0  0  0  0  0  0  0  0  0
   21.3242   25.5027   39.4587 C   0  0  0  0  0  0  0  0  0  0  0  0
   20.4431   25.7390   38.3708 O   0  0  0  0  0  0  0  0  0  0  0  0
   24.6510   26.7619   36.9202 H   0  0  0  0  0  0  0  0  0  0  0  0
   30.7583   28.6627   36.2441 H   0  0  0  0  0  0  0  0  0  0  0  0
   32.0986   29.2474   34.2469 H   0  0  0  0  0  0  0  0  0  0  0  0
   31.0673   28.9538   31.9900 H   0  0  0  0  0  0  0  0  0  0  0  0
   28.9261   27.8587   31.7654 H   0  0  0  0  0  0  0  0  0  0  0  0
   25.7676   27.1514   32.2655 H   0  0  0  0  0  0  0  0  0  0  0  0
   27.2972   26.3794   31.7551 H   0  0  0  0  0  0  0  0  0  0  0  0
   22.6592   22.0252   35.9172 H   0  0  0  0  0  0  0  0  0  0  0  0
   19.5825   21.9158   34.8648 H   0  0  0  0  0  0  0  0  0  0  0  0
   19.5232   22.4498   36.6439 H   0  0  0  0  0  0  0  0  0  0  0  0
   20.4244   24.7205   33.9249 H   0  0  0  0  0  0  0  0  0  0  0  0
   19.4368   26.2794   35.9956 H   0  0  0  0  0  0  0  0  0  0  0  0
   21.0287   26.5479   35.2395 H   0  0  0  0  0  0  0  0  0  0  0  0
   23.1341   24.3255   39.0638 H   0  0  0  0  0  0  0  0  0  0  0  0
   23.3991   26.1345   39.1064 H   0  0  0  0  0  0  0  0  0  0  0  0
   21.0169   24.5785   39.9932 H   0  0  0  0  0  0  0  0  0  0  0  0
   21.3155   26.3690   40.1529 H   0  0  0  0  0  0  0  0  0  0  0  0
  1  2  1  0
  2  3  2  0
  2  4  1  0
  4  5  2  0
  5  6  1  0
  6  7  2  0
  7  8  1  0
  8  9  2  0
  9 10  1  0
 10 11  2  0
 11 12  1  0
 12 13  2  0
 13 14  1  0
  1 15  1  0
 15 16  2  0
 16 17  1  0
 17 18  2  0
 18 19  1  0
 19 20  1  0
 20 21  1  0
 21 22  1  0
 22 23  1  0
 23 24  2  0
 24 25  1  0
 25 26  1  0
 26 27  1  0
 13  4  1  0
 24 15  1  0
 12  7  1  0
 21 18  1  0
 27 23  1  0
  1 28  1  0
  8 29  1  0
  9 30  1  0
 10 31  1  0
 11 32  1  0
 14 33  1  0
 14 34  1  0
 17 35  1  0
 19 36  1  0
 19 37  1  0
 21 38  1  0
 22 39  1  0
 22 40  1  0
 25 41  1  0
 25 42  1  0
 26 43  1  0
 26 44  1  0
M  END
$$$$
confid_3
     RDKit          3D

 44 48  0  0  0  0  0  0  0  0999 V2000
   24.4800   26.1000   36.1300 N   0  0  0  0  0  0  0  0  0  0  0  0
   25.2500   26.2500   34.9900 C   0  0  0  0  0  0  0  0  0  0  0  0
   24.7400   25.7600   33.9900 O   0  0  0  0  0  0  0  0  0  0  0  0
   26.5900   26.8900   34.9600 C   0  0  0  0  0  0  0  0  0  0  0  0
   27.0600   27.2400   36.1600 N   0  0  0  0  0  0  0  0  0  0  0  0
   28.3000   27.7100   36.2400 N   0  0  0  0  0  0  0  0  0  0  0  0
   29.0500   27.9600   35.1500 C   0  0  0  0  0  0  0  0  0  0  0  0
   30.3400   28.4900   35.2600 C   0  0  0  0  0  0  0  0  0  0  0  0
   31.1100   28.8200   34.1400 C   0  0  0  0  0  0  0  0  0  0  0  0
   30.5200   28.6700   32.8800 C   0  0  0  0  0  0  0  0  0  0  0  0
   29.2900   28.0200   32.7700 C   0  0  0  0  0  0  0  0  0  0  0  0
   28.5200   27.7100   33.8900 C   0  0  0  0  0  0  0  0  0  0  0  0
   27.2700   27.0800   33.7600 C   0  0  0  0  0  0  0  0  0  0  0  0
   26.7500   26.8800   32.4900 N   0  0  0  0  0  0  0  0  0  0  0  0
   23.0496   25.9302   36.1475 C   0  0  0  0  0  0  0  0  0  0  0  0
   22.3393   26.2598   35.1008 N   0  0  0  0  0  0  0  0  0  0  0  0
   20.9116   26.1708   35.0195 C   0  0  0  0  0  0  0  0  0  0  0  0
   20.2905   25.0214   35.2543 C   0  0  0  0  0  0  0  0  0  0  0  0
   18.9059   24.4929   35.4780 C   0  0  0  0  0  0  0  0  0  0  0  0
   19.3118   23.1889   35.7542 O   0  0  0  0  0  0  0  0  0  0  0  0
   20.6258   23.5764   35.5046 C   0  0  0  0  0  0  0  0  0  0  0  0
   21.5680   23.2920   36.6950 C   0  0  0  0  0  0  0  0  0  0  0  0
   21.7294   24.4357   37.6585 C   0  0  0  0  0  0  0  0  0  0  0  0
   22.4002   25.5552   37.4268 C   0  0  0  0  0  0  0  0  0  0  0  0
   22.3828   26.4242   38.6387 C   0  0  0  0  0  0  0  0  0  0  0  0
   21.5489   25.6062   39.6379 C   0  0  0  0  0  0  0  0  0  0  0  0
   21.2022   24.4222   38.9347 O   0  0  0  0  0  0  0  0  0  0  0  0
   24.9688   26.1100   37.0534 H   0  0  0  0  0  0  0  0  0  0  0  0
   30.7583   28.6623   36.2440 H   0  0  0  0  0  0  0  0  0  0  0  0
   32.0994   29.2454   34.2469 H   0  0  0  0  0  0  0  0  0  0  0  0
   31.0716   28.9441   31.9898 H   0  0  0  0  0  0  0  0  0  0  0  0
   28.9437   27.8128   31.7670 H   0  0  0  0  0  0  0  0  0  0  0  0
   26.7158   27.6565   31.7924 H   0  0  0  0  0  0  0  0  0  0  0  0
   26.3617   25.9528   32.2110 H   0  0  0  0  0  0  0  0  0  0  0  0
   20.3334   27.0573   34.7985 H   0  0  0  0  0  0  0  0  0  0  0  0
   18.4204   24.9588   36.3639 H   0  0  0  0  0  0  0  0  0  0  0  0
   18.2827   24.5429   34.5575 H   0  0  0  0  0  0  0  0  0  0  0  0
   21.0012   23.0873   34.5768 H   0  0  0  0  0  0  0  0  0  0  0  0
   22.5736   23.0342   36.2970 H   0  0  0  0  0  0  0  0  0  0  0  0
   21.2058   22.3978   37.2467 H   0  0  0  0  0  0  0  0  0  0  0  0
   21.8935   27.3955   38.4097 H   0  0  0  0  0  0  0  0  0  0  0  0
   23.4142   26.5860   39.0180 H   0  0  0  0  0  0  0  0  0  0  0  0
   22.1487   25.3465   40.5367 H   0  0  0  0  0  0  0  0  0  0  0  0
   20.6285   26.1535   39.9351 H   0  0  0  0  0  0  0  0  0  0  0  0
  1  2  1  0
  2  3  2  0
  2  4  1  0
  4  5  2  0
  5  6  1  0
  6  7  2  0
  7  8  1  0
  8  9  2  0
  9 10  1  0
 10 11  2  0
 11 12  1  0
 12 13  2  0
 13 14  1  0
  1 15  1  0
 15 16  2  0
 16 17  1  0
 17 18  2  0
 18 19  1  0
 19 20  1  0
 20 21  1  0
 21 22  1  0
 22 23  1  0
 23 24  2  0
 24 25  1  0
 25 26  1  0
 26 27  1  0
 13  4  1  0
 24 15  1  0
 12  7  1  0
 21 18  1  0
 27 23  1  0
  1 28  1  0
  8 29  1  0
  9 30  1  0
 10 31  1  0
 11 32  1  0
 14 33  1  0
 14 34  1  0
 17 35  1  0
 19 36  1  0
 19 37  1  0
 21 38  1  0
 22 39  1  0
 22 40  1  0
 25 41  1  0
 25 42  1  0
 26 43  1  0
 26 44  1  0
M  END
$$$$
confid_4
     RDKit          3D

 44 48  0  0  0  0  0  0  0  0999 V2000
   24.4800   26.1000   36.1300 N   0  0  0  0  0  0  0  0  0  0  0  0
   25.2500   26.2500   34.9900 C   0  0  0  0  0  0  0  0  0  0  0  0
   24.7400   25.7600   33.9900 O   0  0  0  0  0  0  0  0  0  0  0  0
   26.5900   26.8900   34.9600 C   0  0  0  0  0  0  0  0  0  0  0  0
   27.0600   27.2400   36.1600 N   0  0  0  0  0  0  0  0  0  0  0  0
   28.3000   27.7100   36.2400 N   0  0  0  0  0  0  0  0  0  0  0  0
   29.0500   27.9600   35.1500 C   0  0  0  0  0  0  0  0  0  0  0  0
   30.3400   28.4900   35.2600 C   0  0  0  0  0  0  0  0  0  0  0  0
   31.1100   28.8200   34.1400 C   0  0  0  0  0  0  0  0  0  0  0  0
   30.5200   28.6700   32.8800 C   0  0  0  0  0  0  0  0  0  0  0  0
   29.2900   28.0200   32.7700 C   0  0  0  0  0  0  0  0  0  0  0  0
   28.5200   27.7100   33.8900 C   0  0  0  0  0  0  0  0  0  0  0  0
   27.2700   27.0800   33.7600 C   0  0  0  0  0  0  0  0  0  0  0  0
   26.7500   26.8800   32.4900 N   0  0  0  0  0  0  0  0  0  0  0  0
   23.0352   26.0774   36.1570 C   0  0  0  0  0  0  0  0  0  0  0  0
   22.3963   26.4556   35.0789 N   0  0  0  0  0  0  0  0  0  0  0  0
   21.0289   26.5546   34.6421 C   0  0  0  0  0  0  0  0  0  0  0  0
   20.0270   25.8204   35.1105 C   0  0  0  0  0  0  0  0  0  0  0  0
   18.7934   25.1959   34.5207 C   0  0  0  0  0  0  0  0  0  0  0  0
   18.5568   24.3464   35.5969 O   0  0  0  0  0  0  0  0  0  0  0  0
   19.6036   24.9713   36.2643 C   0  0  0  0  0  0  0  0  0  0  0  0
   20.7144   24.0329   36.7143 C   0  0  0  0  0  0  0  0  0  0  0  0
   21.5055   24.8040   37.7160 C   0  0  0  0  0  0  0  0  0  0  0  0
   22.3882   25.7613   37.4595 C   0  0  0  0  0  0  0  0  0  0  0  0
   22.8328   26.3761   38.7544 C   0  0  0  0  0  0  0  0  0  0  0  0
   21.9887   25.6513   39.8079 C   0  0  0  0  0  0  0  0  0  0  0  0
   21.2471   24.6987   39.0693 O   0  0  0  0  0  0  0  0  0  0  0  0
   24.9962   25.9986   37.0301 H   0  0  0  0  0  0  0  0  0  0  0  0
   30.7580   28.6629   36.2440 H   0  0  0  0  0  0  0  0  0  0  0  0
   32.0983   29.2480   34.2470 H   0  0  0  0  0  0  0  0  0  0  0  0
   31.0669   28.9543   31.9901 H   0  0  0  0  0  0  0  0  0  0  0  0
   28.9258   27.8587   31.7656 H   0  0  0  0  0  0  0  0  0  0  0  0
   27.2967   26.3782   31.7555 H   0  0  0  0  0  0  0  0  0  0  0  0
   25.7673   27.1506   32.2658 H   0  0  0  0  0  0  0  0  0  0  0  0
   20.8772   26.9899   33.6637 H   0  0  0  0  0  0  0  0  0  0  0  0
   17.9693   25.9322   34.3860 H   0  0  0  0  0  0  0  0  0  0  0  0
   19.0199   24.6177   33.5979 H   0  0  0  0  0  0  0  0  0  0  0  0
   19.1959   25.5925   37.0991 H   0  0  0  0  0  0  0  0  0  0  0  0
   20.2725   23.1409   37.2068 H   0  0  0  0  0  0  0  0  0  0  0  0
   21.3517   23.6940   35.8674 H   0  0  0  0  0  0  0  0  0  0  0  0
   23.9090   26.1917   38.9489 H   0  0  0  0  0  0  0  0  0  0  0  0
   22.6238   27.4674   38.7543 H   0  0  0  0  0  0  0  0  0  0  0  0
   21.2953   26.3558   40.3150 H   0  0  0  0  0  0  0  0  0  0  0  0
   22.6293   25.1362   40.5554 H   0  0  0  0  0  0  0  0  0  0  0  0
  1  2  1  0
  2  3  2  0
  2  4  1  0
  4  5  2  0
  5  6  1  0
  6  7  2  0
  7  8  1  0
  8  9  2  0
  9 10  1  0
 10 11  2  0
 11 12  1  0
 12 13  2  0
 13 14  1  0
  1 15  1  0
 15 16  2  0
 16 17  1  0
 17 18  2  0
 18 19  1  0
 19 20  1  0
 20 21  1  0
 21 22  1  0
 22 23  1  0
 23 24  2  0
 24 25  1  0
 25 26  1  0
 26 27  1  0
 13  4  1  0
 24 15  1  0
 12  7  1  0
 21 18  1  0
 27 23  1  0
  1 28  1  0
  8 29  1  0
  9 30  1  0
 10 31  1  0
 11 32  1  0
 14 33  1  0
 14 34  1  0
 17 35  1  0
 19 36  1  0
 19 37  1  0
 21 38  1  0
 22 39  1  0
 22 40  1  0
 25 41  1  0
 25 42  1  0
 26 43  1  0
 26 44  1  0
M  END
$$$$
confid_5
     RDKit          3D

 44 48  0  0  0  0  0  0  0  0999 V2000
   24.4800   26.1000   36.1300 N   0  0  0  0  0  0  0  0  0  0  0  0
   25.2500   26.2500   34.9900 C   0  0  0  0  0  0  0  0  0  0  0  0
   24.7400   25.7600   33.9900 O   0  0  0  0  0  0  0  0  0  0  0  0
   26.5900   26.8900   34.9600 C   0  0  0  0  0  0  0  0  0  0  0  0
   27.0600   27.2400   36.1600 N   0  0  0  0  0  0  0  0  0  0  0  0
   28.3000   27.7100   36.2400 N   0  0  0  0  0  0  0  0  0  0  0  0
   29.0500   27.9600   35.1500 C   0  0  0  0  0  0  0  0  0  0  0  0
   30.3400   28.4900   35.2600 C   0  0  0  0  0  0  0  0  0  0  0  0
   31.1100   28.8200   34.1400 C   0  0  0  0  0  0  0  0  0  0  0  0
   30.5200   28.6700   32.8800 C   0  0  0  0  0  0  0  0  0  0  0  0
   29.2900   28.0200   32.7700 C   0  0  0  0  0  0  0  0  0  0  0  0
   28.5200   27.7100   33.8900 C   0  0  0  0  0  0  0  0  0  0  0  0
   27.2700   27.0800   33.7600 C   0  0  0  0  0  0  0  0  0  0  0  0
   26.7500   26.8800   32.4900 N   0  0  0  0  0  0  0  0  0  0  0  0
   23.4080   25.1507   36.2781 C   0  0  0  0  0  0  0  0  0  0  0  0
   22.3793   25.5372   36.9854 N   0  0  0  0  0  0  0  0  0  0  0  0
   21.1080   24.9876   37.3762 C   0  0  0  0  0  0  0  0  0  0  0  0
   20.4598   24.0286   36.7256 C   0  0  0  0  0  0  0  0  0  0  0  0
   19.0167   23.7068   36.4551 C   0  0  0  0  0  0  0  0  0  0  0  0
   19.2808   22.7845   35.4477 O   0  0  0  0  0  0  0  0  0  0  0  0
   20.6341   22.9292   35.7289 C   0  0  0  0  0  0  0  0  0  0  0  0
   21.4793   23.3688   34.5414 C   0  0  0  0  0  0  0  0  0  0  0  0
   22.8904   23.0780   34.9237 C   0  0  0  0  0  0  0  0  0  0  0  0
   23.6342   23.7671   35.7790 C   0  0  0  0  0  0  0  0  0  0  0  0
   24.9340   23.0500   35.9894 C   0  0  0  0  0  0  0  0  0  0  0  0
   24.7995   21.7953   35.1201 C   0  0  0  0  0  0  0  0  0  0  0  0
   23.5232   21.9179   34.5196 O   0  0  0  0  0  0  0  0  0  0  0  0
   24.6173   26.7902   36.9028 H   0  0  0  0  0  0  0  0  0  0  0  0
   30.7582   28.6623   36.2441 H   0  0  0  0  0  0  0  0  0  0  0  0
   32.0994   29.2455   34.2469 H   0  0  0  0  0  0  0  0  0  0  0  0
   31.0716   28.9442   31.9898 H   0  0  0  0  0  0  0  0  0  0  0  0
   28.9437   27.8128   31.7669 H   0  0  0  0  0  0  0  0  0  0  0  0
   26.7157   27.6565   31.7924 H   0  0  0  0  0  0  0  0  0  0  0  0
   26.3612   25.9529   32.2114 H   0  0  0  0  0  0  0  0  0  0  0  0
   20.5077   25.6036   38.0320 H   0  0  0  0  0  0  0  0  0  0  0  0
   18.5172   23.2325   37.3296 H   0  0  0  0  0  0  0  0  0  0  0  0
   18.4626   24.5850   36.0568 H   0  0  0  0  0  0  0  0  0  0  0  0
   21.0165   21.9969   36.2122 H   0  0  0  0  0  0  0  0  0  0  0  0
   21.3405   24.4454   34.2975 H   0  0  0  0  0  0  0  0  0  0  0  0
   21.2112   22.7647   33.6487 H   0  0  0  0  0  0  0  0  0  0  0  0
   25.7968   23.6620   35.6531 H   0  0  0  0  0  0  0  0  0  0  0  0
   25.0519   22.7822   37.0613 H   0  0  0  0  0  0  0  0  0  0  0  0
   25.5848   21.7653   34.3347 H   0  0  0  0  0  0  0  0  0  0  0  0
   24.8381   20.8737   35.7393 H   0  0  0  0  0  0  0  0  0  0  0  0
  1  2  1  0
  2  3  2  0
  2  4  1  0
  4  5  2  0
  5  6  1  0
  6  7  2  0
  7  8  1  0
  8  9  2  0
  9 10  1  0
 10 11  2  0
 11 12  1  0
 12 13  2  0
 13 14  1  0
  1 15  1  0
 15 16  2  0
 16 17  1  0
 17 18  2  0
 18 19  1  0
 19 20  1  0
 20 21  1  0
 21 22  1  0
 22 23  1  0
 23 24  2  0
 24 25  1  0
 25 26  1  0
 26 27  1  0
 13  4  1  0
 24 15  1  0
 12  7  1  0
 21 18  1  0
 27 23  1  0
  1 28  1  0
  8 29  1  0
  9 30  1  0
 10 31  1  0
 11 32  1  0
 14 33  1  0
 14 34  1  0
 17 35  1  0
 19 36  1  0
 19 37  1  0
 21 38  1  0
 22 39  1  0
 22 40  1  0
 25 41  1  0
 25 42  1  0
 26 43  1  0
 26 44  1  0
M  END
$$$$
confid_6
     RDKit          3D

 44 48  0  0  0  0  0  0  0  0999 V2000
   24.4800   26.1000   36.1300 N   0  0  0  0  0  0  0  0  0  0  0  0
   25.2500   26.2500   34.9900 C   0  0  0  0  0  0  0  0  0  0  0  0
   24.7400   25.7600   33.9900 O   0  0  0  0  0  0  0  0  0  0  0  0
   26.5900   26.8900   34.9600 C   0  0  0  0  0  0  0  0  0  0  0  0
   27.0600   27.2400   36.1600 N   0  0  0  0  0  0  0  0  0  0  0  0
   28.3000   27.7100   36.2400 N   0  0  0  0  0  0  0  0  0  0  0  0
   29.0500   27.9600   35.1500 C   0  0  0  0  0  0  0  0  0  0  0  0
   30.3400   28.4900   35.2600 C   0  0  0  0  0  0  0  0  0  0  0  0
   31.1100   28.8200   34.1400 C   0  0  0  0  0  0  0  0  0  0  0  0
   30.5200   28.6700   32.8800 C   0  0  0  0  0  0  0  0  0  0  0  0
   29.2900   28.0200   32.7700 C   0  0  0  0  0  0  0  0  0  0  0  0
   28.5200   27.7100   33.8900 C   0  0  0  0  0  0  0  0  0  0  0  0
   27.2700   27.0800   33.7600 C   0  0  0  0  0  0  0  0  0  0  0  0
   26.7500   26.8800   32.4900 N   0  0  0  0  0  0  0  0  0  0  0  0
   23.4168   25.1395   36.3027 C   0  0  0  0  0  0  0  0  0  0  0  0
   23.4605   24.0424   35.5901 N   0  0  0  0  0  0  0  0  0  0  0  0
   22.6849   22.8398   35.4396 C   0  0  0  0  0  0  0  0  0  0  0  0
   21.8627   22.3382   36.3521 C   0  0  0  0  0  0  0  0  0  0  0  0
   21.4315   20.9576   36.7599 C   0  0  0  0  0  0  0  0  0  0  0  0
   20.8770   21.3537   37.9716 O   0  0  0  0  0  0  0  0  0  0  0  0
   21.1296   22.6713   37.6081 C   0  0  0  0  0  0  0  0  0  0  0  0
   22.0159   23.4340   38.5818 C   0  0  0  0  0  0  0  0  0  0  0  0
   21.8199   24.8763   38.2616 C   0  0  0  0  0  0  0  0  0  0  0  0
   22.3165   25.5371   37.2212 C   0  0  0  0  0  0  0  0  0  0  0  0
   21.7729   26.9345   37.2265 C   0  0  0  0  0  0  0  0  0  0  0  0
   20.7946   26.9402   38.4059 C   0  0  0  0  0  0  0  0  0  0  0  0
   20.9326   25.6551   38.9810 O   0  0  0  0  0  0  0  0  0  0  0  0
   24.6848   26.7316   36.9365 H   0  0  0  0  0  0  0  0  0  0  0  0
   30.7580   28.6629   36.2441 H   0  0  0  0  0  0  0  0  0  0  0  0
   32.0983   29.2479   34.2470 H   0  0  0  0  0  0  0  0  0  0  0  0
   31.0668   28.9541   31.9900 H   0  0  0  0  0  0  0  0  0  0  0  0
   28.9257   27.8586   31.7656 H   0  0  0  0  0  0  0  0  0  0  0  0
   27.2968   26.3783   31.7555 H   0  0  0  0  0  0  0  0  0  0  0  0
   25.7672   27.1500   32.2658 H   0  0  0  0  0  0  0  0  0  0  0  0
   23.0121   22.1571   34.6671 H   0  0  0  0  0  0  0  0  0  0  0  0
   22.3002   20.2817   36.9220 H   0  0  0  0  0  0  0  0  0  0  0  0
   20.6666   20.5302   36.0735 H   0  0  0  0  0  0  0  0  0  0  0  0
   20.1633   23.1909   37.3971 H   0  0  0  0  0  0  0  0  0  0  0  0
   21.6760   23.2430   39.6215 H   0  0  0  0  0  0  0  0  0  0  0  0
   23.0870   23.1450   38.4991 H   0  0  0  0  0  0  0  0  0  0  0  0
   21.2479   27.1468   36.2702 H   0  0  0  0  0  0  0  0  0  0  0  0
   22.5806   27.6781   37.3936 H   0  0  0  0  0  0  0  0  0  0  0  0
   21.0621   27.7197   39.1511 H   0  0  0  0  0  0  0  0  0  0  0  0
   19.7501   27.0844   38.0551 H   0  0  0  0  0  0  0  0  0  0  0  0
  1  2  1  0
  2  3  2  0
  2  4  1  0
  4  5  2  0
  5  6  1  0
  6  7  2  0
  7  8  1  0
  8  9  2  0
  9 10  1  0
 10 11  2  0
 11 12  1  0
 12 13  2  0
 13 14  1  0
  1 15  1  0
 15 16  2  0
 16 17  1  0
 17 18  2  0
 18 19  1  0
 19 20  1  0
 20 21  1  0
 21 22  1  0
 22 23  1  0
 23 24  2  0
 24 25  1  0
 25 26  1  0
 26 27  1  0
 13  4  1  0
 24 15  1  0
 12  7  1  0
 21 18  1  0
 27 23  1  0
  1 28  1  0
  8 29  1  0
  9 30  1  0
 10 31  1  0
 11 32  1  0
 14 33  1  0
 14 34  1  0
 17 35  1  0
 19 36  1  0
 19 37  1  0
 21 38  1  0
 22 39  1  0
 22 40  1  0
 25 41  1  0
 25 42  1  0
 26 43  1  0
 26 44  1  0
M  END
$$$$
confid_7
     RDKit          3D

 44 48  0  0  0  0  0  0  0  0999 V2000
   24.4800   26.1000   36.1300 N   0  0  0  0  0  0  0  0  0  0  0  0
   25.2500   26.2500   34.9900 C   0  0  0  0  0  0  0  0  0  0  0  0
   24.7400   25.7600   33.9900 O   0  0  0  0  0  0  0  0  0  0  0  0
   26.5900   26.8900   34.9600 C   0  0  0  0  0  0  0  0  0  0  0  0
   27.0600   27.2400   36.1600 N   0  0  0  0  0  0  0  0  0  0  0  0
   28.3000   27.7100   36.2400 N   0  0  0  0  0  0  0  0  0  0  0  0
   29.0500   27.9600   35.1500 C   0  0  0  0  0  0  0  0  0  0  0  0
   30.3400   28.4900   35.2600 C   0  0  0  0  0  0  0  0  0  0  0  0
   31.1100   28.8200   34.1400 C   0  0  0  0  0  0  0  0  0  0  0  0
   30.5200   28.6700   32.8800 C   0  0  0  0  0  0  0  0  0  0  0  0
   29.2900   28.0200   32.7700 C   0  0  0  0  0  0  0  0  0  0  0  0
   28.5200   27.7100   33.8900 C   0  0  0  0  0  0  0  0  0  0  0  0
   27.2700   27.0800   33.7600 C   0  0  0  0  0  0  0  0  0  0  0  0
   26.7500   26.8800   32.4900 N   0  0  0  0  0  0  0  0  0  0  0  0
   23.1849   25.4765   36.1790 C   0  0  0  0  0  0  0  0  0  0  0  0
   22.3090   25.7157   35.2377 N   0  0  0  0  0  0  0  0  0  0  0  0
   20.9879   25.1611   35.2032 C   0  0  0  0  0  0  0  0  0  0  0  0
   20.8073   23.8469   35.2505 C   0  0  0  0  0  0  0  0  0  0  0  0
   19.7094   22.8472   35.4548 C   0  0  0  0  0  0  0  0  0  0  0  0
   20.5472   21.7325   35.4390 O   0  0  0  0  0  0  0  0  0  0  0  0
   21.6229   22.5815   35.1954 C   0  0  0  0  0  0  0  0  0  0  0  0
   22.7402   22.4479   36.2542 C   0  0  0  0  0  0  0  0  0  0  0  0
   22.6135   23.3875   37.4221 C   0  0  0  0  0  0  0  0  0  0  0  0
   22.8253   24.6949   37.3879 C   0  0  0  0  0  0  0  0  0  0  0  0
   22.7091   25.2673   38.7629 C   0  0  0  0  0  0  0  0  0  0  0  0
   22.3266   24.0452   39.6139 C   0  0  0  0  0  0  0  0  0  0  0  0
   22.2954   22.9629   38.6979 O   0  0  0  0  0  0  0  0  0  0  0  0
   24.9224   26.3217   37.0488 H   0  0  0  0  0  0  0  0  0  0  0  0
   30.7584   28.6623   36.2438 H   0  0  0  0  0  0  0  0  0  0  0  0
   32.0993   29.2455   34.2469 H   0  0  0  0  0  0  0  0  0  0  0  0
   31.0719   28.9441   31.9899 H   0  0  0  0  0  0  0  0  0  0  0  0
   28.9440   27.8126   31.7669 H   0  0  0  0  0  0  0  0  0  0  0  0
   26.7154   27.6565   31.7925 H   0  0  0  0  0  0  0  0  0  0  0  0
   26.3624   25.9525   32.2110 H   0  0  0  0  0  0  0  0  0  0  0  0
   20.1321   25.8197   35.2092 H   0  0  0  0  0  0  0  0  0  0  0  0
   18.9900   22.8277   34.6040 H   0  0  0  0  0  0  0  0  0  0  0  0
   19.2184   22.9679   36.4457 H   0  0  0  0  0  0  0  0  0  0  0  0
   22.0253   22.4158   34.1688 H   0  0  0  0  0  0  0  0  0  0  0  0
   23.7187   22.6439   35.7648 H   0  0  0  0  0  0  0  0  0  0  0  0
   22.7722   21.4044   36.6326 H   0  0  0  0  0  0  0  0  0  0  0  0
   21.9136   26.0437   38.7984 H   0  0  0  0  0  0  0  0  0  0  0  0
   23.6824   25.6902   39.0952 H   0  0  0  0  0  0  0  0  0  0  0  0
   21.3245   24.1747   40.0765 H   0  0  0  0  0  0  0  0  0  0  0  0
   23.0877   23.8511   40.3972 H   0  0  0  0  0  0  0  0  0  0  0  0
  1  2  1  0
  2  3  2  0
  2  4  1  0
  4  5  2  0
  5  6  1  0
  6  7  2  0
  7  8  1  0
  8  9  2  0
  9 10  1  0
 10 11  2  0
 11 12  1  0
 12 13  2  0
 13 14  1  0
  1 15  1  0
 15 16  2  0
 16 17  1  0
 17 18  2  0
 18 19  1  0
 19 20  1  0
 20 21  1  0
 21 22  1  0
 22 23  1  0
 23 24  2  0
 24 25  1  0
 25 26  1  0
 26 27  1  0
 13  4  1  0
 24 15  1  0
 12  7  1  0
 21 18  1  0
 27 23  1  0
  1 28  1  0
  8 29  1  0
  9 30  1  0
 10 31  1  0
 11 32  1  0
 14 33  1  0
 14 34  1  0
 17 35  1  0
 19 36  1  0
 19 37  1  0
 21 38  1  0
 22 39  1  0
 22 40  1  0
 25 41  1  0
 25 42  1  0
 26 43  1  0
 26 44  1  0
M  END
$$$$
confid_8
     RDKit          3D

 44 48  0  0  0  0  0  0  0  0999 V2000
   24.4800   26.1000   36.1300 N   0  0  0  0  0  0  0  0  0  0  0  0
   25.2500   26.2500   34.9900 C   0  0  0  0  0  0  0  0  0  0  0  0
   24.7400   25.7600   33.9900 O   0  0  0  0  0  0  0  0  0  0  0  0
   26.5900   26.8900   34.9600 C   0  0  0  0  0  0  0  0  0  0  0  0
   27.0600   27.2400   36.1600 N   0  0  0  0  0  0  0  0  0  0  0  0
   28.3000   27.7100   36.2400 N   0  0  0  0  0  0  0  0  0  0  0  0
   29.0500   27.9600   35.1500 C   0  0  0  0  0  0  0  0  0  0  0  0
   30.3400   28.4900   35.2600 C   0  0  0  0  0  0  0  0  0  0  0  0
   31.1100   28.8200   34.1400 C   0  0  0  0  0  0  0  0  0  0  0  0
   30.5200   28.6700   32.8800 C   0  0  0  0  0  0  0  0  0  0  0  0
   29.2900   28.0200   32.7700 C   0  0  0  0  0  0  0  0  0  0  0  0
   28.5200   27.7100   33.8900 C   0  0  0  0  0  0  0  0  0  0  0  0
   27.2700   27.0800   33.7600 C   0  0  0  0  0  0  0  0  0  0  0  0
   26.7500   26.8800   32.4900 N   0  0  0  0  0  0  0  0  0  0  0  0
   23.0397   26.0003   36.1384 C   0  0  0  0  0  0  0  0  0  0  0  0
   22.3919   26.5216   35.1277 N   0  0  0  0  0  0  0  0  0  0  0  0
   21.0260   26.6346   34.6890 C   0  0  0  0  0  0  0  0  0  0  0  0
   20.0501   25.7995   35.0195 C   0  0  0  0  0  0  0  0  0  0  0  0
   18.8399   25.2407   34.3250 C   0  0  0  0  0  0  0  0  0  0  0  0
   18.6339   24.2164   35.2438 O   0  0  0  0  0  0  0  0  0  0  0  0
   19.6537   24.7598   36.0150 C   0  0  0  0  0  0  0  0  0  0  0  0
   20.7949   23.8000   36.3153 C   0  0  0  0  0  0  0  0  0  0  0  0
   21.5532   24.4174   37.4410 C   0  0  0  0  0  0  0  0  0  0  0  0
   22.4047   25.4333   37.3620 C   0  0  0  0  0  0  0  0  0  0  0  0
   22.8440   25.8068   38.7488 C   0  0  0  0  0  0  0  0  0  0  0  0
   21.9902   24.9131   39.6526 C   0  0  0  0  0  0  0  0  0  0  0  0
   21.2959   24.0695   38.7536 O   0  0  0  0  0  0  0  0  0  0  0  0
   24.9894   26.0487   37.0373 H   0  0  0  0  0  0  0  0  0  0  0  0
   30.7582   28.6623   36.2441 H   0  0  0  0  0  0  0  0  0  0  0  0
   32.0995   29.2449   34.2470 H   0  0  0  0  0  0  0  0  0  0  0  0
   31.0714   28.9446   31.9899 H   0  0  0  0  0  0  0  0  0  0  0  0
   28.9439   27.8123   31.7671 H   0  0  0  0  0  0  0  0  0  0  0  0
   26.3486   25.9586   32.2141 H   0  0  0  0  0  0  0  0  0  0  0  0
   26.7199   27.6552   31.7909 H   0  0  0  0  0  0  0  0  0  0  0  0
   20.8651   27.2172   33.7922 H   0  0  0  0  0  0  0  0  0  0  0  0
   19.0841   24.8328   33.3190 H   0  0  0  0  0  0  0  0  0  0  0  0
   17.9904   25.9610   34.3111 H   0  0  0  0  0  0  0  0  0  0  0  0
   19.2203   25.2208   36.9351 H   0  0  0  0  0  0  0  0  0  0  0  0
   21.4484   23.6264   35.4321 H   0  0  0  0  0  0  0  0  0  0  0  0
   20.3803   22.8240   36.6475 H   0  0  0  0  0  0  0  0  0  0  0  0
   23.9177   25.5723   38.9074 H   0  0  0  0  0  0  0  0  0  0  0  0
   22.6462   26.8829   38.9411 H   0  0  0  0  0  0  0  0  0  0  0  0
   21.2619   25.5199   40.2323 H   0  0  0  0  0  0  0  0  0  0  0  0
   22.6184   24.3078   40.3405 H   0  0  0  0  0  0  0  0  0  0  0  0
  1  2  1  0
  2  3  2  0
  2  4  1  0
  4  5  2  0
  5  6  1  0
  6  7  2  0
  7  8  1  0
  8  9  2  0
  9 10  1  0
 10 11  2  0
 11 12  1  0
 12 13  2  0
 13 14  1  0
  1 15  1  0
 15 16  2  0
 16 17  1  0
 17 18  2  0
 18 19  1  0
 19 20  1  0
 20 21  1  0
 21 22  1  0
 22 23  1  0
 23 24  2  0
 24 25  1  0
 25 26  1  0
 26 27  1  0
 13  4  1  0
 24 15  1  0
 12  7  1  0
 21 18  1  0
 27 23  1  0
  1 28  1  0
  8 29  1  0
  9 30  1  0
 10 31  1  0
 11 32  1  0
 14 33  1  0
 14 34  1  0
 17 35  1  0
 19 36  1  0
 19 37  1  0
 21 38  1  0
 22 39  1  0
 22 40  1  0
 25 41  1  0
 25 42  1  0
 26 43  1  0
 26 44  1  0
M  END
$$$$
confid_9
     RDKit          3D

 44 48  0  0  0  0  0  0  0  0999 V2000
   24.4800   26.1000   36.1300 N   0  0  0  0  0  0  0  0  0  0  0  0
   25.2500   26.2500   34.9900 C   0  0  0  0  0  0  0  0  0  0  0  0
   24.7400   25.7600   33.9900 O   0  0  0  0  0  0  0  0  0  0  0  0
   26.5900   26.8900   34.9600 C   0  0  0  0  0  0  0  0  0  0  0  0
   27.0600   27.2400   36.1600 N   0  0  0  0  0  0  0  0  0  0  0  0
   28.3000   27.7100   36.2400 N   0  0  0  0  0  0  0  0  0  0  0  0
   29.0500   27.9600   35.1500 C   0  0  0  0  0  0  0  0  0  0  0  0
   30.3400   28.4900   35.2600 C   0  0  0  0  0  0  0  0  0  0  0  0
   31.1100   28.8200   34.1400 C   0  0  0  0  0  0  0  0  0  0  0  0
   30.5200   28.6700   32.8800 C   0  0  0  0  0  0  0  0  0  0  0  0
   29.2900   28.0200   32.7700 C   0  0  0  0  0  0  0  0  0  0  0  0
   28.5200   27.7100   33.8900 C   0  0  0  0  0  0  0  0  0  0  0  0
   27.2700   27.0800   33.7600 C   0  0  0  0  0  0  0  0  0  0  0  0
   26.7500   26.8800   32.4900 N   0  0  0  0  0  0  0  0  0  0  0  0
   23.0456   26.0145   36.1276 C   0  0  0  0  0  0  0  0  0  0  0  0
   22.4537   25.4150   37.1243 N   0  0  0  0  0  0  0  0  0  0  0  0
   21.0358   25.2847   37.2687 C   0  0  0  0  0  0  0  0  0  0  0  0
   20.3016   24.7380   36.3065 C   0  0  0  0  0  0  0  0  0  0  0  0
   18.8630   24.5462   35.9321 C   0  0  0  0  0  0  0  0  0  0  0  0
   19.1305   23.9492   34.7022 O   0  0  0  0  0  0  0  0  0  0  0  0
   20.4902   24.0316   34.9903 C   0  0  0  0  0  0  0  0  0  0  0  0
   21.2823   24.7977   33.9069 C   0  0  0  0  0  0  0  0  0  0  0  0
   21.4788   26.2636   34.1833 C   0  0  0  0  0  0  0  0  0  0  0  0
   22.2665   26.7781   35.1164 C   0  0  0  0  0  0  0  0  0  0  0  0
   22.2304   28.2682   35.0555 C   0  0  0  0  0  0  0  0  0  0  0  0
   21.2312   28.5436   33.9220 C   0  0  0  0  0  0  0  0  0  0  0  0
   20.8563   27.2566   33.4514 O   0  0  0  0  0  0  0  0  0  0  0  0
   24.9700   25.9878   37.0453 H   0  0  0  0  0  0  0  0  0  0  0  0
   30.7580   28.6632   36.2440 H   0  0  0  0  0  0  0  0  0  0  0  0
   32.0982   29.2482   34.2469 H   0  0  0  0  0  0  0  0  0  0  0  0
   31.0668   28.9543   31.9901 H   0  0  0  0  0  0  0  0  0  0  0  0
   28.9256   27.8589   31.7657 H   0  0  0  0  0  0  0  0  0  0  0  0
   27.2966   26.3788   31.7551 H   0  0  0  0  0  0  0  0  0  0  0  0
   25.7669   27.1499   32.2665 H   0  0  0  0  0  0  0  0  0  0  0  0
   20.5558   25.6502   38.1663 H   0  0  0  0  0  0  0  0  0  0  0  0
   18.3375   23.8483   36.6209 H   0  0  0  0  0  0  0  0  0  0  0  0
   18.3368   25.5169   35.8016 H   0  0  0  0  0  0  0  0  0  0  0  0
   20.9134   23.0116   35.1410 H   0  0  0  0  0  0  0  0  0  0  0  0
   22.2855   24.3271   33.8054 H   0  0  0  0  0  0  0  0  0  0  0  0
   20.7761   24.6779   32.9250 H   0  0  0  0  0  0  0  0  0  0  0  0
   23.2363   28.6704   34.8118 H   0  0  0  0  0  0  0  0  0  0  0  0
   21.8652   28.6847   36.0199 H   0  0  0  0  0  0  0  0  0  0  0  0
   21.7026   29.1267   33.1031 H   0  0  0  0  0  0  0  0  0  0  0  0
   20.3355   29.0760   34.3075 H   0  0  0  0  0  0  0  0  0  0  0  0
  1  2  1  0
  2  3  2  0
  2  4  1  0
  4  5  2  0
  5  6  1  0
  6  7  2  0
  7  8  1  0
  8  9  2  0
  9 10  1  0
 10 11  2  0
 11 12  1  0
 12 13  2  0
 13 14  1  0
  1 15  1  0
 15 16  2  0
 16 17  1  0
 17 18  2  0
 18 19  1  0
 19 20  1  0
 20 21  1  0
 21 22  1  0
 22 23  1  0
 23 24  2  0
 24 25  1  0
 25 26  1  0
 26 27  1  0
 13  4  1  0
 24 15  1  0
 12  7  1  0
 21 18  1  0
 27 23  1  0
  1 28  1  0
  8 29  1  0
  9 30  1  0
 10 31  1  0
 11 32  1  0
 14 33  1  0
 14 34  1  0
 17 35  1  0
 19 36  1  0
 19 37  1  0
 21 38  1  0
 22 39  1  0
 22 40  1  0
 25 41  1  0
 25 42  1  0
 26 43  1  0
 26 44  1  0
M  END
$$$$
