confid_0
     RDKit          3D

 44 48  0  0  0  0  0  0  0  0999 V2000
   25.3300   26.2600   34.7600 N   0  0  0  0  0  0  0  0  0  0  0  0
   26.1200   25.9200   33.6900 C   0  0  0  0  0  0  0  0  0  0  0  0
   25.6300   25.1100   32.9400 O   0  0  0  0  0  0  0  0  0  0  0  0
   27.5200   26.3800   33.4600 C   0  0  0  0  0  0  0  0  0  0  0  0
   28.1600   26.6300   34.6100 N   0  0  0  0  0  0  0  0  0  0  0  0
   29.4800   26.8500   34.5700 N   0  0  0  0  0  0  0  0  0  0  0  0
   30.1900   26.7800   33.4400 C   0  0  0  0  0  0  0  0  0  0  0  0
   31.5600   27.0500   33.5000 C   0  0  0  0  0  0  0  0  0  0  0  0
   32.2700   27.2400   32.3100 C   0  0  0  0  0  0  0  0  0  0  0  0
   31.6100   27.2500   31.0800 C   0  0  0  0  0  0  0  0  0  0  0  0
   30.2700   26.8700   31.0600 C   0  0  0  0  0  0  0  0  0  0  0  0
   29.5100   26.6900   32.2300 C   0  0  0  0  0  0  0  0  0  0  0  0
   28.1400   26.4100   32.2000 C   0  0  0  0  0  0  0  0  0  0  0  0
   27.4300   26.1300   31.0500 N   0  0  0  0  0  0  0  0  0  0  0  0
   24.1164   25.5952   35.1681 C   0  0  0  0  0  0  0  0  0  0  0  0
   23.9893   24.3221   34.8914 N   0  0  0  0  0  0  0  0  0  0  0  0
   23.0230   23.2835   35.1281 C   0  0  0  0  0  0  0  0  0  0  0  0
   22.1209   23.2875   36.0998 C   0  0  0  0  0  0  0  0  0  0  0  0
   21.4274   22.2443   36.9299 C   0  0  0  0  0  0  0  0  0  0  0  0
   20.9424   23.1417   37.8753 O   0  0  0  0  0  0  0  0  0  0  0  0
   21.4483   24.1737   37.0935 C   0  0  0  0  0  0  0  0  0  0  0  0
   22.4451   25.0720   37.8146 C   0  0  0  0  0  0  0  0  0  0  0  0
   22.5433   26.3240   37.0048 C   0  0  0  0  0  0  0  0  0  0  0  0
   23.0854   26.4518   35.8148 C   0  0  0  0  0  0  0  0  0  0  0  0
   22.7779   27.8184   35.3167 C   0  0  0  0  0  0  0  0  0  0  0  0
   21.9512   28.4576   36.2661 O   0  0  0  0  0  0  0  0  0  0  0  0
   21.7683   27.5440   37.3253 C   0  0  0  0  0  0  0  0  0  0  0  0
   25.6299   27.0898   35.3193 H   0  0  0  0  0  0  0  0  0  0  0  0
   32.0668   27.1422   34.4530 H   0  0  0  0  0  0  0  0  0  0  0  0
   33.3289   27.4607   32.3494 H   0  0  0  0  0  0  0  0  0  0  0  0
   32.1514   27.4336   30.1608 H   0  0  0  0  0  0  0  0  0  0  0  0
   29.8039   26.7906   30.0879 H   0  0  0  0  0  0  0  0  0  0  0  0
   27.5781   26.6934   30.1842 H   0  0  0  0  0  0  0  0  0  0  0  0
   26.8571   25.2651   30.9535 H   0  0  0  0  0  0  0  0  0  0  0  0
   23.2277   22.3266   34.6689 H   0  0  0  0  0  0  0  0  0  0  0  0
   20.6019   21.7434   36.3767 H   0  0  0  0  0  0  0  0  0  0  0  0
   22.1464   21.5301   37.3875 H   0  0  0  0  0  0  0  0  0  0  0  0
   20.6060   24.7413   36.6284 H   0  0  0  0  0  0  0  0  0  0  0  0
   22.0502   25.3174   38.8240 H   0  0  0  0  0  0  0  0  0  0  0  0
   23.4419   24.5938   37.9371 H   0  0  0  0  0  0  0  0  0  0  0  0
   22.2458   27.7509   34.3442 H   0  0  0  0  0  0  0  0  0  0  0  0
   23.7042   28.4160   35.1869 H   0  0  0  0  0  0  0  0  0  0  0  0
   20.6887   27.2990   37.4182 H   0  0  0  0  0  0  0  0  0  0  0  0
   22.1344   27.9893   38.2748 H   0  0  0  0  0  0  0  0  0  0  0  0
  1  2  1  0
  2  3  2  0
  2  4  1  0
  4  5  2  0
  5  6  1  0
  6  7  2  0
  7  8  1  0
  8  9  2  0
  9 10  1  0
 10 11  2  0
 11 12  1  0
 12 13  2  0
 13 14  1  0
  1 15  1  0
 15 16  2  0
 16 17  1  0
 17 18  2  0
 18 19  1  0
 19 20  1  0
 20 21  1  0
 21 22  1  0
 22 23  1  0
 23 24  2  0
 24 25  1  0
 25 26  1  0
 26 27  1  0
 13  4  1  0
 24 15  1  0
 12  7  1  0
 21 18  1  0
 27 23  1  0
  1 28  1  0
  8 29  1  0
  9 30  1  0
 10 31  1  0
 11 32  1  0
 14 33  1  0
 14 34  1  0
 17 35  1  0
 19 36  1  0
 19 37  1  0
 21 38  1  0
 22 39  1  0
 22 40  1  0
 25 41  1  0
 25 42  1  0
 27 43  1  0
 27 44  1  0
M  END
$$$$
confid_1
     RDKit          3D

 44 48  0  0  0  0  0  0  0  0999 V2000
   25.3300   26.2600   34.7600 N   0  0  0  0  0  0  0  0  0  0  0  0
   26.1200   25.9200   33.6900 C   0  0  0  0  0  0  0  0  0  0  0  0
   25.6300   25.1100   32.9400 O   0  0  0  0  0  0  0  0  0  0  0  0
   27.5200   26.3800   33.4600 C   0  0  0  0  0  0  0  0  0  0  0  0
   28.1600   26.6300   34.6100 N   0  0  0  0  0  0  0  0  0  0  0  0
   29.4800   26.8500   34.5700 N   0  0  0  0  0  0  0  0  0  0  0  0
   30.1900   26.7800   33.4400 C   0  0  0  0  0  0  0  0  0  0  0  0
   31.5600   27.0500   33.5000 C   0  0  0  0  0  0  0  0  0  0  0  0
   32.2700   27.2400   32.3100 C   0  0  0  0  0  0  0  0  0  0  0  0
   31.6100   27.2500   31.0800 C   0  0  0  0  0  0  0  0  0  0  0  0
   30.2700   26.8700   31.0600 C   0  0  0  0  0  0  0  0  0  0  0  0
   29.5100   26.6900   32.2300 C   0  0  0  0  0  0  0  0  0  0  0  0
   28.1400   26.4100   32.2000 C   0  0  0  0  0  0  0  0  0  0  0  0
   27.4300   26.1300   31.0500 N   0  0  0  0  0  0  0  0  0  0  0  0
   24.2331   25.4774   35.2849 C   0  0  0  0  0  0  0  0  0  0  0  0
   24.1849   24.2074   34.9720 N   0  0  0  0  0  0  0  0  0  0  0  0
   23.3093   23.0928   35.2169 C   0  0  0  0  0  0  0  0  0  0  0  0
   22.0226   23.1898   35.5230 C   0  0  0  0  0  0  0  0  0  0  0  0
   20.7893   22.3760   35.2484 C   0  0  0  0  0  0  0  0  0  0  0  0
   19.8962   23.3715   35.6303 O   0  0  0  0  0  0  0  0  0  0  0  0
   20.9860   24.1368   36.0288 C   0  0  0  0  0  0  0  0  0  0  0  0
   21.0799   25.4968   35.3485 C   0  0  0  0  0  0  0  0  0  0  0  0
   22.0258   26.3094   36.1727 C   0  0  0  0  0  0  0  0  0  0  0  0
   23.3269   26.1482   36.2595 C   0  0  0  0  0  0  0  0  0  0  0  0
   23.8195   27.0215   37.3586 C   0  0  0  0  0  0  0  0  0  0  0  0
   22.6967   27.5523   38.0294 O   0  0  0  0  0  0  0  0  0  0  0  0
   21.5668   27.2001   37.2627 C   0  0  0  0  0  0  0  0  0  0  0  0
   25.5598   27.1691   35.2156 H   0  0  0  0  0  0  0  0  0  0  0  0
   32.0668   27.1429   34.4530 H   0  0  0  0  0  0  0  0  0  0  0  0
   33.3284   27.4627   32.3495 H   0  0  0  0  0  0  0  0  0  0  0  0
   32.1496   27.4414   30.1613 H   0  0  0  0  0  0  0  0  0  0  0  0
   29.7983   26.8254   30.0886 H   0  0  0  0  0  0  0  0  0  0  0  0
   26.4124   26.3491   30.9738 H   0  0  0  0  0  0  0  0  0  0  0  0
   27.8914   25.7240   30.2072 H   0  0  0  0  0  0  0  0  0  0  0  0
   23.6339   22.1386   34.8247 H   0  0  0  0  0  0  0  0  0  0  0  0
   20.7170   21.4813   35.9065 H   0  0  0  0  0  0  0  0  0  0  0  0
   20.6816   22.1362   34.1678 H   0  0  0  0  0  0  0  0  0  0  0  0
   21.0066   24.2058   37.1435 H   0  0  0  0  0  0  0  0  0  0  0  0
   21.4268   25.4235   34.2941 H   0  0  0  0  0  0  0  0  0  0  0  0
   20.0788   25.9789   35.3548 H   0  0  0  0  0  0  0  0  0  0  0  0
   24.4323   26.4272   38.0684 H   0  0  0  0  0  0  0  0  0  0  0  0
   24.4209   27.8659   36.9654 H   0  0  0  0  0  0  0  0  0  0  0  0
   21.1001   28.1133   36.8367 H   0  0  0  0  0  0  0  0  0  0  0  0
   20.8344   26.6724   37.9094 H   0  0  0  0  0  0  0  0  0  0  0  0
  1  2  1  0
  2  3  2  0
  2  4  1  0
  4  5  2  0
  5  6  1  0
  6  7  2  0
  7  8  1  0
  8  9  2  0
  9 10  1  0
 10 11  2  0
 11 12  1  0
 12 13  2  0
 13 14  1  0
  1 15  1  0
 15 16  2  0
 16 17  1  0
 17 18  2  0
 18 19  1  0
 19 20  1  0
 20 21  1  0
 21 22  1  0
 22 23  1  0
 23 24  2  0
 24 25  1  0
 25 26  1  0
 26 27  1  0
 13  4  1  0
 24 15  1  0
 12  7  1  0
 21 18  1  0
 27 23  1  0
  1 28  1  0
  8 29  1  0
  9 30  1  0
 10 31  1  0
 11 32  1  0
 14 33  1  0
 14 34  1  0
 17 35  1  0
 19 36  1  0
 19 37  1  0
 21 38  1  0
 22 39  1  0
 22 40  1  0
 25 41  1  0
 25 42  1  0
 27 43  1  0
 27 44  1  0
M  END
$$$$
confid_2
     RDKit          3D

 44 48  0  0  0  0  0  0  0  0999 V2000
   25.3300   26.2600   34.7600 N   0  0  0  0  0  0  0  0  0  0  0  0
   26.1200   25.9200   33.6900 C   0  0  0  0  0  0  0  0  0  0  0  0
   25.6300   25.1100   32.9400 O   0  0  0  0  0  0  0  0  0  0  0  0
   27.5200   26.3800   33.4600 C   0  0  0  0  0  0  0  0  0  0  0  0
   28.1600   26.6300   34.6100 N   0  0  0  0  0  0  0  0  0  0  0  0
   29.4800   26.8500   34.5700 N   0  0  0  0  0  0  0  0  0  0  0  0
   30.1900   26.7800   33.4400 C   0  0  0  0  0  0  0  0  0  0  0  0
   31.5600   27.0500   33.5000 C   0  0  0  0  0  0  0  0  0  0  0  0
   32.2700   27.2400   32.3100 C   0  0  0  0  0  0  0  0  0  0  0  0
   31.6100   27.2500   31.0800 C   0  0  0  0  0  0  0  0  0  0  0  0
   30.2700   26.8700   31.0600 C   0  0  0  0  0  0  0  0  0  0  0  0
   29.5100   26.6900   32.2300 C   0  0  0  0  0  0  0  0  0  0  0  0
   28.1400   26.4100   32.2000 C   0  0  0  0  0  0  0  0  0  0  0  0
   27.4300   26.1300   31.0500 N   0  0  0  0  0  0  0  0  0  0  0  0
   23.8888   26.1553   34.7891 C   0  0  0  0  0  0  0  0  0  0  0  0
   23.2589   26.1623   33.6415 N   0  0  0  0  0  0  0  0  0  0  0  0
   21.9015   26.0603   33.1773 C   0  0  0  0  0  0  0  0  0  0  0  0
   20.9050   25.5059   33.8531 C   0  0  0  0  0  0  0  0  0  0  0  0
   19.6617   24.7396   33.4990 C   0  0  0  0  0  0  0  0  0  0  0  0
   19.4285   24.2790   34.7905 O   0  0  0  0  0  0  0  0  0  0  0  0
   20.4934   25.0642   35.2171 C   0  0  0  0  0  0  0  0  0  0  0  0
   21.6027   24.2891   35.9169 C   0  0  0  0  0  0  0  0  0  0  0  0
   22.4178   25.3027   36.6537 C   0  0  0  0  0  0  0  0  0  0  0  0
   23.2307   26.1916   36.1271 C   0  0  0  0  0  0  0  0  0  0  0  0
   23.6519   27.1164   37.2140 C   0  0  0  0  0  0  0  0  0  0  0  0
   22.8664   26.8361   38.3527 O   0  0  0  0  0  0  0  0  0  0  0  0
   22.1642   25.6461   38.0716 C   0  0  0  0  0  0  0  0  0  0  0  0
   25.8160   26.6472   35.5964 H   0  0  0  0  0  0  0  0  0  0  0  0
   32.0669   27.1424   34.4530 H   0  0  0  0  0  0  0  0  0  0  0  0
   33.3288   27.4608   32.3493 H   0  0  0  0  0  0  0  0  0  0  0  0
   32.1515   27.4336   30.1608 H   0  0  0  0  0  0  0  0  0  0  0  0
   29.8039   26.7907   30.0880 H   0  0  0  0  0  0  0  0  0  0  0  0
   27.5768   26.6942   30.1848 H   0  0  0  0  0  0  0  0  0  0  0  0
   26.8600   25.2632   30.9529 H   0  0  0  0  0  0  0  0  0  0  0  0
   21.7538   26.1637   32.1108 H   0  0  0  0  0  0  0  0  0  0  0  0
   18.8424   25.4031   33.1423 H   0  0  0  0  0  0  0  0  0  0  0  0
   19.8759   23.8961   32.8067 H   0  0  0  0  0  0  0  0  0  0  0  0
   20.1087   25.9191   35.8246 H   0  0  0  0  0  0  0  0  0  0  0  0
   21.1514   23.5795   36.6437 H   0  0  0  0  0  0  0  0  0  0  0  0
   22.2314   23.7086   35.2056 H   0  0  0  0  0  0  0  0  0  0  0  0
   24.7178   26.9644   37.4807 H   0  0  0  0  0  0  0  0  0  0  0  0
   23.4919   28.1688   36.8986 H   0  0  0  0  0  0  0  0  0  0  0  0
   21.0790   25.8114   38.2407 H   0  0  0  0  0  0  0  0  0  0  0  0
   22.5257   24.8290   38.7314 H   0  0  0  0  0  0  0  0  0  0  0  0
  1  2  1  0
  2  3  2  0
  2  4  1  0
  4  5  2  0
  5  6  1  0
  6  7  2  0
  7  8  1  0
  8  9  2  0
  9 10  1  0
 10 11  2  0
 11 12  1  0
 12 13  2  0
 13 14  1  0
  1 15  1  0
 15 16  2  0
 16 17  1  0
 17 18  2  0
 18 19  1  0
 19 20  1  0
 20 21  1  0
 21 22  1  0
 22 23  1  0
 23 24  2  0
 24 25  1  0
 25 26  1  0
 26 27  1  0
 13  4  1  0
 24 15  1  0
 12  7  1  0
 21 18  1  0
 27 23  1  0
  1 28  1  0
  8 29  1  0
  9 30  1  0
 10 31  1  0
 11 32  1  0
 14 33  1  0
 14 34  1  0
 17 35  1  0
 19 36  1  0
 19 37  1  0
 21 38  1  0
 22 39  1  0
 22 40  1  0
 25 41  1  0
 25 42  1  0
 27 43  1  0
 27 44  1  0
M  END
$$$$
confid_3
     RDKit          3D

 44 48  0  0  0  0  0  0  0  0999 V2000
   25.3300   26.2600   34.7600 N   0  0  0  0  0  0  0  0  0  0  0  0
   26.1200   25.9200   33.6900 C   0  0  0  0  0  0  0  0  0  0  0  0
   25.6300   25.1100   32.9400 O   0  0  0  0  0  0  0  0  0  0  0  0
   27.5200   26.3800   33.4600 C   0  0  0  0  0  0  0  0  0  0  0  0
   28.1600   26.6300   34.6100 N   0  0  0  0  0  0  0  0  0  0  0  0
   29.4800   26.8500   34.5700 N   0  0  0  0  0  0  0  0  0  0  0  0
   30.1900   26.7800   33.4400 C   0  0  0  0  0  0  0  0  0  0  0  0
   31.5600   27.0500   33.5000 C   0  0  0  0  0  0  0  0  0  0  0  0
   32.2700   27.2400   32.3100 C   0  0  0  0  0  0  0  0  0  0  0  0
   31.6100   27.2500   31.0800 C   0  0  0  0  0  0  0  0  0  0  0  0
   30.2700   26.8700   31.0600 C   0  0  0  0  0  0  0  0  0  0  0  0
   29.5100   26.6900   32.2300 C   0  0  0  0  0  0  0  0  0  0  0  0
   28.1400   26.4100   32.2000 C   0  0  0  0  0  0  0  0  0  0  0  0
   27.4300   26.1300   31.0500 N   0  0  0  0  0  0  0  0  0  0  0  0
   24.1266   25.5729   35.1495 C   0  0  0  0  0  0  0  0  0  0  0  0
   23.1386   26.3187   35.5679 N   0  0  0  0  0  0  0  0  0  0  0  0
   21.7883   26.1090   36.0173 C   0  0  0  0  0  0  0  0  0  0  0  0
   21.0512   25.0404   35.7426 C   0  0  0  0  0  0  0  0  0  0  0  0
   19.5879   24.7705   35.5311 C   0  0  0  0  0  0  0  0  0  0  0  0
   19.7721   23.5034   34.9879 O   0  0  0  0  0  0  0  0  0  0  0  0
   21.1281   23.6269   35.2672 C   0  0  0  0  0  0  0  0  0  0  0  0
   22.0323   23.4834   34.0487 C   0  0  0  0  0  0  0  0  0  0  0  0
   23.4072   23.2287   34.5766 C   0  0  0  0  0  0  0  0  0  0  0  0
   24.1686   24.0862   35.2151 C   0  0  0  0  0  0  0  0  0  0  0  0
   25.3372   23.3482   35.7605 C   0  0  0  0  0  0  0  0  0  0  0  0
   25.1716   21.9791   35.4552 O   0  0  0  0  0  0  0  0  0  0  0  0
   23.9701   21.8681   34.7239 C   0  0  0  0  0  0  0  0  0  0  0  0
   25.5580   27.1506   35.2576 H   0  0  0  0  0  0  0  0  0  0  0  0
   32.0668   27.1425   34.4530 H   0  0  0  0  0  0  0  0  0  0  0  0
   33.3288   27.4608   32.3494 H   0  0  0  0  0  0  0  0  0  0  0  0
   32.1515   27.4335   30.1608 H   0  0  0  0  0  0  0  0  0  0  0  0
   29.8039   26.7906   30.0880 H   0  0  0  0  0  0  0  0  0  0  0  0
   26.8607   25.2627   30.9530 H   0  0  0  0  0  0  0  0  0  0  0  0
   27.5769   26.6940   30.1846 H   0  0  0  0  0  0  0  0  0  0  0  0
   21.2490   26.9912   36.3347 H   0  0  0  0  0  0  0  0  0  0  0  0
   19.1408   25.4637   34.7851 H   0  0  0  0  0  0  0  0  0  0  0  0
   19.0218   24.7313   36.4886 H   0  0  0  0  0  0  0  0  0  0  0  0
   21.4041   22.9319   36.0970 H   0  0  0  0  0  0  0  0  0  0  0  0
   21.7003   22.6092   33.4482 H   0  0  0  0  0  0  0  0  0  0  0  0
   22.0145   24.3842   33.3961 H   0  0  0  0  0  0  0  0  0  0  0  0
   26.2853   23.7067   35.3095 H   0  0  0  0  0  0  0  0  0  0  0  0
   25.3831   23.4810   36.8619 H   0  0  0  0  0  0  0  0  0  0  0  0
   24.1770   21.4318   33.7240 H   0  0  0  0  0  0  0  0  0  0  0  0
   23.2608   21.2168   35.2775 H   0  0  0  0  0  0  0  0  0  0  0  0
  1  2  1  0
  2  3  2  0
  2  4  1  0
  4  5  2  0
  5  6  1  0
  6  7  2  0
  7  8  1  0
  8  9  2  0
  9 10  1  0
 10 11  2  0
 11 12  1  0
 12 13  2  0
 13 14  1  0
  1 15  1  0
 15 16  2  0
 16 17  1  0
 17 18  2  0
 18 19  1  0
 19 20  1  0
 20 21  1  0
 21 22  1  0
 22 23  1  0
 23 24  2  0
 24 25  1  0
 25 26  1  0
 26 27  1  0
 13  4  1  0
 24 15  1  0
 12  7  1  0
 21 18  1  0
 27 23  1  0
  1 28  1  0
  8 29  1  0
  9 30  1  0
 10 31  1  0
 11 32  1  0
 14 33  1  0
 14 34  1  0
 17 35  1  0
 19 36  1  0
 19 37  1  0
 21 38  1  0
 22 39  1  0
 22 40  1  0
 25 41  1  0
 25 42  1  0
 27 43  1  0
 27 44  1  0
M  END
$$$$
confid_4
     RDKit          3D

 44 48  0  0  0  0  0  0  0  0999 V2000
   25.3300   26.2600   34.7600 N   0  0  0  0  0  0  0  0  0  0  0  0
   26.1200   25.9200   33.6900 C   0  0  0  0  0  0  0  0  0  0  0  0
   25.6300   25.1100   32.9400 O   0  0  0  0  0  0  0  0  0  0  0  0
   27.5200   26.3800   33.4600 C   0  0  0  0  0  0  0  0  0  0  0  0
   28.1600   26.6300   34.6100 N   0  0  0  0  0  0  0  0  0  0  0  0
   29.4800   26.8500   34.5700 N   0  0  0  0  0  0  0  0  0  0  0  0
   30.1900   26.7800   33.4400 C   0  0  0  0  0  0  0  0  0  0  0  0
   31.5600   27.0500   33.5000 C   0  0  0  0  0  0  0  0  0  0  0  0
   32.2700   27.2400   32.3100 C   0  0  0  0  0  0  0  0  0  0  0  0
   31.6100   27.2500   31.0800 C   0  0  0  0  0  0  0  0  0  0  0  0
   30.2700   26.8700   31.0600 C   0  0  0  0  0  0  0  0  0  0  0  0
   29.5100   26.6900   32.2300 C   0  0  0  0  0  0  0  0  0  0  0  0
   28.1400   26.4100   32.2000 C   0  0  0  0  0  0  0  0  0  0  0  0
   27.4300   26.1300   31.0500 N   0  0  0  0  0  0  0  0  0  0  0  0
   24.1432   25.5664   35.1959 C   0  0  0  0  0  0  0  0  0  0  0  0
   23.9274   24.3343   34.8166 N   0  0  0  0  0  0  0  0  0  0  0  0
   22.8059   23.5366   35.2141 C   0  0  0  0  0  0  0  0  0  0  0  0
   21.5653   23.9633   35.0124 C   0  0  0  0  0  0  0  0  0  0  0  0
   20.1585   23.6083   35.3882 C   0  0  0  0  0  0  0  0  0  0  0  0
   19.5818   24.7251   34.7885 O   0  0  0  0  0  0  0  0  0  0  0  0
   20.8456   25.1009   34.3400 C   0  0  0  0  0  0  0  0  0  0  0  0
   21.2382   26.5231   34.7972 C   0  0  0  0  0  0  0  0  0  0  0  0
   22.0360   26.5791   36.0744 C   0  0  0  0  0  0  0  0  0  0  0  0
   23.2865   26.2153   36.2197 C   0  0  0  0  0  0  0  0  0  0  0  0
   23.7297   26.5485   37.5894 C   0  0  0  0  0  0  0  0  0  0  0  0
   22.6213   27.1057   38.2702 O   0  0  0  0  0  0  0  0  0  0  0  0
   21.5605   27.1826   37.3362 C   0  0  0  0  0  0  0  0  0  0  0  0
   25.6021   27.1191   35.2888 H   0  0  0  0  0  0  0  0  0  0  0  0
   32.0668   27.1425   34.4531 H   0  0  0  0  0  0  0  0  0  0  0  0
   33.3284   27.4624   32.3496 H   0  0  0  0  0  0  0  0  0  0  0  0
   32.1497   27.4412   30.1613 H   0  0  0  0  0  0  0  0  0  0  0  0
   29.7983   26.8256   30.0885 H   0  0  0  0  0  0  0  0  0  0  0  0
   27.8918   25.7263   30.2062 H   0  0  0  0  0  0  0  0  0  0  0  0
   26.4118   26.3462   30.9746 H   0  0  0  0  0  0  0  0  0  0  0  0
   22.9730   22.5888   35.7073 H   0  0  0  0  0  0  0  0  0  0  0  0
   19.8195   22.6648   34.9068 H   0  0  0  0  0  0  0  0  0  0  0  0
   20.0070   23.6200   36.4900 H   0  0  0  0  0  0  0  0  0  0  0  0
   20.9013   25.0113   33.2309 H   0  0  0  0  0  0  0  0  0  0  0  0
   20.3171   27.1341   34.9109 H   0  0  0  0  0  0  0  0  0  0  0  0
   21.8374   27.0038   33.9937 H   0  0  0  0  0  0  0  0  0  0  0  0
   24.0663   25.6286   38.1130 H   0  0  0  0  0  0  0  0  0  0  0  0
   24.5574   27.2881   37.5593 H   0  0  0  0  0  0  0  0  0  0  0  0
   20.6828   26.6193   37.7172 H   0  0  0  0  0  0  0  0  0  0  0  0
   21.2847   28.2458   37.1709 H   0  0  0  0  0  0  0  0  0  0  0  0
  1  2  1  0
  2  3  2  0
  2  4  1  0
  4  5  2  0
  5  6  1  0
  6  7  2  0
  7  8  1  0
  8  9  2  0
  9 10  1  0
 10 11  2  0
 11 12  1  0
 12 13  2  0
 13 14  1  0
  1 15  1  0
 15 16  2  0
 16 17  1  0
 17 18  2  0
 18 19  1  0
 19 20  1  0
 20 21  1  0
 21 22  1  0
 22 23  1  0
 23 24  2  0
 24 25  1  0
 25 26  1  0
 26 27  1  0
 13  4  1  0
 24 15  1  0
 12  7  1  0
 21 18  1  0
 27 23  1  0
  1 28  1  0
  8 29  1  0
  9 30  1  0
 10 31  1  0
 11 32  1  0
 14 33  1  0
 14 34  1  0
 17 35  1  0
 19 36  1  0
 19 37  1  0
 21 38  1  0
 22 39  1  0
 22 40  1  0
 25 41  1  0
 25 42  1  0
 27 43  1  0
 27 44  1  0
M  END
$$$$
confid_5
     RDKit          3D

 44 48  0  0  0  0  0  0  0  0999 V2000
   25.3300   26.2600   34.7600 N   0  0  0  0  0  0  0  0  0  0  0  0
   26.1200   25.9200   33.6900 C   0  0  0  0  0  0  0  0  0  0  0  0
   25.6300   25.1100   32.9400 O   0  0  0  0  0  0  0  0  0  0  0  0
   27.5200   26.3800   33.4600 C   0  0  0  0  0  0  0  0  0  0  0  0
   28.1600   26.6300   34.6100 N   0  0  0  0  0  0  0  0  0  0  0  0
   29.4800   26.8500   34.5700 N   0  0  0  0  0  0  0  0  0  0  0  0
   30.1900   26.7800   33.4400 C   0  0  0  0  0  0  0  0  0  0  0  0
   31.5600   27.0500   33.5000 C   0  0  0  0  0  0  0  0  0  0  0  0
   32.2700   27.2400   32.3100 C   0  0  0  0  0  0  0  0  0  0  0  0
   31.6100   27.2500   31.0800 C   0  0  0  0  0  0  0  0  0  0  0  0
   30.2700   26.8700   31.0600 C   0  0  0  0  0  0  0  0  0  0  0  0
   29.5100   26.6900   32.2300 C   0  0  0  0  0  0  0  0  0  0  0  0
   28.1400   26.4100   32.2000 C   0  0  0  0  0  0  0  0  0  0  0  0
   27.4300   26.1300   31.0500 N   0  0  0  0  0  0  0  0  0  0  0  0
   24.1332   25.5785   35.1834 C   0  0  0  0  0  0  0  0  0  0  0  0
   23.2927   26.2235   35.9463 N   0  0  0  0  0  0  0  0  0  0  0  0
   22.0817   25.6755   36.4813 C   0  0  0  0  0  0  0  0  0  0  0  0
   21.1697   25.1403   35.6791 C   0  0  0  0  0  0  0  0  0  0  0  0
   19.9013   24.3455   35.7534 C   0  0  0  0  0  0  0  0  0  0  0  0
   19.7628   24.1999   34.3755 O   0  0  0  0  0  0  0  0  0  0  0  0
   20.9065   24.9768   34.2070 C   0  0  0  0  0  0  0  0  0  0  0  0
   22.0010   24.2496   33.3936 C   0  0  0  0  0  0  0  0  0  0  0  0
   23.0429   23.5445   34.2225 C   0  0  0  0  0  0  0  0  0  0  0  0
   23.9752   24.1197   34.9413 C   0  0  0  0  0  0  0  0  0  0  0  0
   24.8761   23.0827   35.4849 C   0  0  0  0  0  0  0  0  0  0  0  0
   24.3780   21.8266   35.0646 O   0  0  0  0  0  0  0  0  0  0  0  0
   23.2618   22.0832   34.2334 C   0  0  0  0  0  0  0  0  0  0  0  0
   25.5896   27.1288   35.2803 H   0  0  0  0  0  0  0  0  0  0  0  0
   32.0669   27.1423   34.4528 H   0  0  0  0  0  0  0  0  0  0  0  0
   33.3289   27.4608   32.3494 H   0  0  0  0  0  0  0  0  0  0  0  0
   32.1515   27.4337   30.1609 H   0  0  0  0  0  0  0  0  0  0  0  0
   29.8039   26.7903   30.0880 H   0  0  0  0  0  0  0  0  0  0  0  0
   27.5772   26.6937   30.1845 H   0  0  0  0  0  0  0  0  0  0  0  0
   26.8598   25.2632   30.9532 H   0  0  0  0  0  0  0  0  0  0  0  0
   21.9161   25.6865   37.5498 H   0  0  0  0  0  0  0  0  0  0  0  0
   20.0559   23.3621   36.2492 H   0  0  0  0  0  0  0  0  0  0  0  0
   19.0629   24.9312   36.1905 H   0  0  0  0  0  0  0  0  0  0  0  0
   20.6438   25.9523   33.7373 H   0  0  0  0  0  0  0  0  0  0  0  0
   21.5190   23.5198   32.7076 H   0  0  0  0  0  0  0  0  0  0  0  0
   22.5197   24.9921   32.7494 H   0  0  0  0  0  0  0  0  0  0  0  0
   25.9067   23.2248   35.0963 H   0  0  0  0  0  0  0  0  0  0  0  0
   24.8835   23.1299   36.5945 H   0  0  0  0  0  0  0  0  0  0  0  0
   23.4732   21.7206   33.2048 H   0  0  0  0  0  0  0  0  0  0  0  0
   22.3654   21.5675   34.6373 H   0  0  0  0  0  0  0  0  0  0  0  0
  1  2  1  0
  2  3  2  0
  2  4  1  0
  4  5  2  0
  5  6  1  0
  6  7  2  0
  7  8  1  0
  8  9  2  0
  9 10  1  0
 10 11  2  0
 11 12  1  0
 12 13  2  0
 13 14  1  0
  1 15  1  0
 15 16  2  0
 16 17  1  0
 17 18  2  0
 18 19  1  0
 19 20  1  0
 20 21  1  0
 21 22  1  0
 22 23  1  0
 23 24  2  0
 24 25  1  0
 25 26  1  0
 26 27  1  0
 13  4  1  0
 24 15  1  0
 12  7  1  0
 21 18  1  0
 27 23  1  0
  1 28  1  0
  8 29  1  0
  9 30  1  0
 10 31  1  0
 11 32  1  0
 14 33  1  0
 14 34  1  0
 17 35  1  0
 19 36  1  0
 19 37  1  0
 21 38  1  0
 22 39  1  0
 22 40  1  0
 25 41  1  0
 25 42  1  0
 27 43  1  0
 27 44  1  0
M  END
$$$$
confid_6
     RDKit          3D

 44 48  0  0  0  0  0  0  0  0999 V2000
   25.3300   26.2600   34.7600 N   0  0  0  0  0  0  0  0  0  0  0  0
   26.1200   25.9200   33.6900 C   0  0  0  0  0  0  0  0  0  0  0  0
   25.6300   25.1100   32.9400 O   0  0  0  0  0  0  0  0  0  0  0  0
   27.5200   26.3800   33.4600 C   0  0  0  0  0  0  0  0  0  0  0  0
   28.1600   26.6300   34.6100 N   0  0  0  0  0  0  0  0  0  0  0  0
   29.4800   26.8500   34.5700 N   0  0  0  0  0  0  0  0  0  0  0  0
   30.1900   26.7800   33.4400 C   0  0  0  0  0  0  0  0  0  0  0  0
   31.5600   27.0500   33.5000 C   0  0  0  0  0  0  0  0  0  0  0  0
   32.2700   27.2400   32.3100 C   0  0  0  0  0  0  0  0  0  0  0  0
   31.6100   27.2500   31.0800 C   0  0  0  0  0  0  0  0  0  0  0  0
   30.2700   26.8700   31.0600 C   0  0  0  0  0  0  0  0  0  0  0  0
   29.5100   26.6900   32.2300 C   0  0  0  0  0  0  0  0  0  0  0  0
   28.1400   26.4100   32.2000 C   0  0  0  0  0  0  0  0  0  0  0  0
   27.4300   26.1300   31.0500 N   0  0  0  0  0  0  0  0  0  0  0  0
   24.1586   25.5597   35.2256 C   0  0  0  0  0  0  0  0  0  0  0  0
   23.8525   24.3838   34.7435 N   0  0  0  0  0  0  0  0  0  0  0  0
   22.7062   23.6158   35.1282 C   0  0  0  0  0  0  0  0  0  0  0  0
   22.5147   23.2777   36.3971 C   0  0  0  0  0  0  0  0  0  0  0  0
   21.4464   22.7085   37.2809 C   0  0  0  0  0  0  0  0  0  0  0  0
   22.1638   22.8671   38.4642 O   0  0  0  0  0  0  0  0  0  0  0  0
   23.2347   23.3493   37.7156 C   0  0  0  0  0  0  0  0  0  0  0  0
   23.6886   24.7546   38.1665 C   0  0  0  0  0  0  0  0  0  0  0  0
   23.0351   25.8966   37.4316 C   0  0  0  0  0  0  0  0  0  0  0  0
   23.2717   26.2526   36.1924 C   0  0  0  0  0  0  0  0  0  0  0  0
   22.5814   27.5295   35.9172 C   0  0  0  0  0  0  0  0  0  0  0  0
   21.8204   27.8538   37.0654 O   0  0  0  0  0  0  0  0  0  0  0  0
   22.1531   26.9029   38.0592 C   0  0  0  0  0  0  0  0  0  0  0  0
   25.6139   27.1095   35.2990 H   0  0  0  0  0  0  0  0  0  0  0  0
   32.0667   27.1429   34.4530 H   0  0  0  0  0  0  0  0  0  0  0  0
   33.3284   27.4627   32.3495 H   0  0  0  0  0  0  0  0  0  0  0  0
   32.1497   27.4414   30.1613 H   0  0  0  0  0  0  0  0  0  0  0  0
   29.7983   26.8254   30.0885 H   0  0  0  0  0  0  0  0  0  0  0  0
   27.8914   25.7242   30.2071 H   0  0  0  0  0  0  0  0  0  0  0  0
   26.4124   26.3489   30.9739 H   0  0  0  0  0  0  0  0  0  0  0  0
   21.9686   23.3478   34.3841 H   0  0  0  0  0  0  0  0  0  0  0  0
   20.5292   23.3378   37.2794 H   0  0  0  0  0  0  0  0  0  0  0  0
   21.2456   21.6361   37.0634 H   0  0  0  0  0  0  0  0  0  0  0  0
   24.0831   22.6275   37.7501 H   0  0  0  0  0  0  0  0  0  0  0  0
   23.5025   24.8620   39.2571 H   0  0  0  0  0  0  0  0  0  0  0  0
   24.7886   24.8368   38.0245 H   0  0  0  0  0  0  0  0  0  0  0  0
   23.3244   28.3327   35.7231 H   0  0  0  0  0  0  0  0  0  0  0  0
   21.9099   27.4180   35.0399 H   0  0  0  0  0  0  0  0  0  0  0  0
   22.6849   27.4076   38.8934 H   0  0  0  0  0  0  0  0  0  0  0  0
   21.2309   26.4157   38.4397 H   0  0  0  0  0  0  0  0  0  0  0  0
  1  2  1  0
  2  3  2  0
  2  4  1  0
  4  5  2  0
  5  6  1  0
  6  7  2  0
  7  8  1  0
  8  9  2  0
  9 10  1  0
 10 11  2  0
 11 12  1  0
 12 13  2  0
 13 14  1  0
  1 15  1  0
 15 16  2  0
 16 17  1  0
 17 18  2  0
 18 19  1  0
 19 20  1  0
 20 21  1  0
 21 22  1  0
 22 23  1  0
 23 24  2  0
 24 25  1  0
 25 26  1  0
 26 27  1  0
 13  4  1  0
 24 15  1  0
 12  7  1  0
 21 18  1  0
 27 23  1  0
  1 28  1  0
  8 29  1  0
  9 30  1  0
 10 31  1  0
 11 32  1  0
 14 33  1  0
 14 34  1  0
 17 35  1  0
 19 36  1  0
 19 37  1  0
 21 38  1  0
 22 39  1  0
 22 40  1  0
 25 41  1  0
 25 42  1  0
 27 43  1  0
 27 44  1  0
M  END
$$$$
