confid_0
     RDKit          3D

 42 45  0  0  0  0  0  0  0  0999 V2000
   24.4800   26.1000   36.1300 N   0  0  0  0  0  0  0  0  0  0  0  0
   25.2500   26.2500   34.9900 C   0  0  0  0  0  0  0  0  0  0  0  0
   24.7400   25.7600   33.9900 O   0  0  0  0  0  0  0  0  0  0  0  0
   26.5900   26.8900   34.9600 C   0  0  0  0  0  0  0  0  0  0  0  0
   27.0600   27.2400   36.1600 N   0  0  0  0  0  0  0  0  0  0  0  0
   28.3000   27.7100   36.2400 N   0  0  0  0  0  0  0  0  0  0  0  0
   29.0500   27.9600   35.1500 C   0  0  0  0  0  0  0  0  0  0  0  0
   30.3400   28.4900   35.2600 C   0  0  0  0  0  0  0  0  0  0  0  0
   31.1100   28.8200   34.1400 C   0  0  0  0  0  0  0  0  0  0  0  0
   30.5200   28.6700   32.8800 C   0  0  0  0  0  0  0  0  0  0  0  0
   29.2900   28.0200   32.7700 C   0  0  0  0  0  0  0  0  0  0  0  0
   28.5200   27.7100   33.8900 C   0  0  0  0  0  0  0  0  0  0  0  0
   27.2700   27.0800   33.7600 C   0  0  0  0  0  0  0  0  0  0  0  0
   26.7500   26.8800   32.4900 N   0  0  0  0  0  0  0  0  0  0  0  0
   23.5351   25.0397   36.3646 C   0  0  0  0  0  0  0  0  0  0  0  0
   22.4621   25.2804   37.1586 N   0  0  0  0  0  0  0  0  0  0  0  0
   21.5507   24.3190   37.4458 C   0  0  0  0  0  0  0  0  0  0  0  0
   21.6981   23.0194   36.9499 C   0  0  0  0  0  0  0  0  0  0  0  0
   20.7456   22.0849   37.3610 O   0  0  0  0  0  0  0  0  0  0  0  0
   21.0178   20.7076   37.5383 C   0  0  0  0  0  0  0  0  0  0  0  0
   21.1203   20.0572   36.1970 C   0  0  0  0  0  0  0  0  0  0  0  0
   20.2559   19.2217   35.8154 O   0  0  0  0  0  0  0  0  0  0  0  0
   22.2577   20.3424   35.3232 C   0  0  0  0  0  0  0  0  0  0  0  0
   23.0131   21.4489   35.3444 C   0  0  0  0  0  0  0  0  0  0  0  0
   22.7946   22.7258   36.0930 C   0  0  0  0  0  0  0  0  0  0  0  0
   23.7225   23.7537   35.8351 C   0  0  0  0  0  0  0  0  0  0  0  0
   19.9213   20.0917   38.4102 C   0  0  0  0  0  0  0  0  0  0  0  0
   24.5548   26.8392   36.8647 H   0  0  0  0  0  0  0  0  0  0  0  0
   30.7580   28.6629   36.2441 H   0  0  0  0  0  0  0  0  0  0  0  0
   32.0983   29.2479   34.2470 H   0  0  0  0  0  0  0  0  0  0  0  0
   31.0669   28.9543   31.9901 H   0  0  0  0  0  0  0  0  0  0  0  0
   28.9258   27.8587   31.7656 H   0  0  0  0  0  0  0  0  0  0  0  0
   27.2968   26.3786   31.7554 H   0  0  0  0  0  0  0  0  0  0  0  0
   25.7672   27.1502   32.2658 H   0  0  0  0  0  0  0  0  0  0  0  0
   20.7161   24.5583   38.0921 H   0  0  0  0  0  0  0  0  0  0  0  0
   21.9844   20.5864   38.0773 H   0  0  0  0  0  0  0  0  0  0  0  0
   22.5184   19.5739   34.6045 H   0  0  0  0  0  0  0  0  0  0  0  0
   23.8488   21.4384   34.6530 H   0  0  0  0  0  0  0  0  0  0  0  0
   24.5921   23.5537   35.2211 H   0  0  0  0  0  0  0  0  0  0  0  0
   18.9254   20.2190   37.9336 H   0  0  0  0  0  0  0  0  0  0  0  0
   20.1176   19.0096   38.5693 H   0  0  0  0  0  0  0  0  0  0  0  0
   19.9054   20.5943   39.4005 H   0  0  0  0  0  0  0  0  0  0  0  0
  1  2  1  0
  2  3  2  0
  2  4  1  0
  4  5  2  0
  5  6  1  0
  6  7  2  0
  7  8  1  0
  8  9  2  0
  9 10  1  0
 10 11  2  0
 11 12  1  0
 12 13  2  0
 13 14  1  0
  1 15  1  0
 15 16  2  0
 16 17  1  0
 17 18  2  0
 18 19  1  0
 19 20  1  0
 20 21  1  0
 21 22  2  0
 21 23  1  0
 23 24  2  0
 24 25  1  0
 25 26  2  0
 20 27  1  0
 13  4  1  0
 26 15  1  0
 12  7  1  0
 25 18  1  0
  1 28  1  0
  8 29  1  0
  9 30  1  0
 10 31  1  0
 11 32  1  0
 14 33  1  0
 14 34  1  0
 17 35  1  0
 20 36  1  0
 23 37  1  0
 24 38  1  0
 26 39  1  0
 27 40  1  0
 27 41  1  0
 27 42  1  0
M  END
$$$$
confid_1
     RDKit          3D

 42 45  0  0  0  0  0  0  0  0999 V2000
   24.4800   26.1000   36.1300 N   0  0  0  0  0  0  0  0  0  0  0  0
   25.2500   26.2500   34.9900 C   0  0  0  0  0  0  0  0  0  0  0  0
   24.7400   25.7600   33.9900 O   0  0  0  0  0  0  0  0  0  0  0  0
   26.5900   26.8900   34.9600 C   0  0  0  0  0  0  0  0  0  0  0  0
   27.0600   27.2400   36.1600 N   0  0  0  0  0  0  0  0  0  0  0  0
   28.3000   27.7100   36.2400 N   0  0  0  0  0  0  0  0  0  0  0  0
   29.0500   27.9600   35.1500 C   0  0  0  0  0  0  0  0  0  0  0  0
   30.3400   28.4900   35.2600 C   0  0  0  0  0  0  0  0  0  0  0  0
   31.1100   28.8200   34.1400 C   0  0  0  0  0  0  0  0  0  0  0  0
   30.5200   28.6700   32.8800 C   0  0  0  0  0  0  0  0  0  0  0  0
   29.2900   28.0200   32.7700 C   0  0  0  0  0  0  0  0  0  0  0  0
   28.5200   27.7100   33.8900 C   0  0  0  0  0  0  0  0  0  0  0  0
   27.2700   27.0800   33.7600 C   0  0  0  0  0  0  0  0  0  0  0  0
   26.7500   26.8800   32.4900 N   0  0  0  0  0  0  0  0  0  0  0  0
   23.0421   26.0366   36.1574 C   0  0  0  0  0  0  0  0  0  0  0  0
   22.4342   25.3562   37.1609 N   0  0  0  0  0  0  0  0  0  0  0  0
   21.0847   25.2810   37.2639 C   0  0  0  0  0  0  0  0  0  0  0  0
   20.2575   25.9320   36.3428 C   0  0  0  0  0  0  0  0  0  0  0  0
   18.8832   25.8535   36.5767 O   0  0  0  0  0  0  0  0  0  0  0  0
   17.9650   26.8732   36.2305 C   0  0  0  0  0  0  0  0  0  0  0  0
   17.7449   26.8458   34.7529 C   0  0  0  0  0  0  0  0  0  0  0  0
   16.6289   26.5090   34.2712 O   0  0  0  0  0  0  0  0  0  0  0  0
   18.8094   27.2605   33.8400 C   0  0  0  0  0  0  0  0  0  0  0  0
   20.1241   27.2428   34.0985 C   0  0  0  0  0  0  0  0  0  0  0  0
   20.8493   26.6370   35.2585 C   0  0  0  0  0  0  0  0  0  0  0  0
   22.2554   26.6986   35.2021 C   0  0  0  0  0  0  0  0  0  0  0  0
   16.6721   26.6691   37.0233 C   0  0  0  0  0  0  0  0  0  0  0  0
   24.9757   25.9855   37.0426 H   0  0  0  0  0  0  0  0  0  0  0  0
   30.7582   28.6623   36.2441 H   0  0  0  0  0  0  0  0  0  0  0  0
   32.0994   29.2455   34.2469 H   0  0  0  0  0  0  0  0  0  0  0  0
   31.0715   28.9442   31.9898 H   0  0  0  0  0  0  0  0  0  0  0  0
   28.9437   27.8129   31.7669 H   0  0  0  0  0  0  0  0  0  0  0  0
   26.7153   27.6568   31.7928 H   0  0  0  0  0  0  0  0  0  0  0  0
   26.3612   25.9530   32.2111 H   0  0  0  0  0  0  0  0  0  0  0  0
   20.6474   24.7334   38.0887 H   0  0  0  0  0  0  0  0  0  0  0  0
   18.3839   27.8637   36.5186 H   0  0  0  0  0  0  0  0  0  0  0  0
   18.4963   27.6319   32.8710 H   0  0  0  0  0  0  0  0  0  0  0  0
   20.7452   27.6505   33.3081 H   0  0  0  0  0  0  0  0  0  0  0  0
   22.7389   27.2614   34.4131 H   0  0  0  0  0  0  0  0  0  0  0  0
   15.9368   27.4635   36.7727 H   0  0  0  0  0  0  0  0  0  0  0  0
   16.8890   26.7228   38.1113 H   0  0  0  0  0  0  0  0  0  0  0  0
   16.2298   25.6743   36.8002 H   0  0  0  0  0  0  0  0  0  0  0  0
  1  2  1  0
  2  3  2  0
  2  4  1  0
  4  5  2  0
  5  6  1  0
  6  7  2  0
  7  8  1  0
  8  9  2  0
  9 10  1  0
 10 11  2  0
 11 12  1  0
 12 13  2  0
 13 14  1  0
  1 15  1  0
 15 16  2  0
 16 17  1  0
 17 18  2  0
 18 19  1  0
 19 20  1  0
 20 21  1  0
 21 22  2  0
 21 23  1  0
 23 24  2  0
 24 25  1  0
 25 26  2  0
 20 27  1  0
 13  4  1  0
 26 15  1  0
 12  7  1  0
 25 18  1  0
  1 28  1  0
  8 29  1  0
  9 30  1  0
 10 31  1  0
 11 32  1  0
 14 33  1  0
 14 34  1  0
 17 35  1  0
 20 36  1  0
 23 37  1  0
 24 38  1  0
 26 39  1  0
 27 40  1  0
 27 41  1  0
 27 42  1  0
M  END
$$$$
confid_2
     RDKit          3D

 42 45  0  0  0  0  0  0  0  0999 V2000
   24.4800   26.1000   36.1300 N   0  0  0  0  0  0  0  0  0  0  0  0
   25.2500   26.2500   34.9900 C   0  0  0  0  0  0  0  0  0  0  0  0
   24.7400   25.7600   33.9900 O   0  0  0  0  0  0  0  0  0  0  0  0
   26.5900   26.8900   34.9600 C   0  0  0  0  0  0  0  0  0  0  0  0
   27.0600   27.2400   36.1600 N   0  0  0  0  0  0  0  0  0  0  0  0
   28.3000   27.7100   36.2400 N   0  0  0  0  0  0  0  0  0  0  0  0
   29.0500   27.9600   35.1500 C   0  0  0  0  0  0  0  0  0  0  0  0
   30.3400   28.4900   35.2600 C   0  0  0  0  0  0  0  0  0  0  0  0
   31.1100   28.8200   34.1400 C   0  0  0  0  0  0  0  0  0  0  0  0
   30.5200   28.6700   32.8800 C   0  0  0  0  0  0  0  0  0  0  0  0
   29.2900   28.0200   32.7700 C   0  0  0  0  0  0  0  0  0  0  0  0
   28.5200   27.7100   33.8900 C   0  0  0  0  0  0  0  0  0  0  0  0
   27.2700   27.0800   33.7600 C   0  0  0  0  0  0  0  0  0  0  0  0
   26.7500   26.8800   32.4900 N   0  0  0  0  0  0  0  0  0  0  0  0
   23.0446   25.9659   36.1480 C   0  0  0  0  0  0  0  0  0  0  0  0
   22.3086   26.2179   35.0343 N   0  0  0  0  0  0  0  0  0  0  0  0
   20.9568   26.1163   35.0300 C   0  0  0  0  0  0  0  0  0  0  0  0
   20.2632   25.7356   36.1837 C   0  0  0  0  0  0  0  0  0  0  0  0
   18.8792   25.5954   36.0629 O   0  0  0  0  0  0  0  0  0  0  0  0
   18.0909   24.6217   36.7314 C   0  0  0  0  0  0  0  0  0  0  0  0
   17.9578   24.9584   38.1786 C   0  0  0  0  0  0  0  0  0  0  0  0
   16.8026   25.0600   38.6724 O   0  0  0  0  0  0  0  0  0  0  0  0
   19.1106   25.1010   39.0750 C   0  0  0  0  0  0  0  0  0  0  0  0
   20.3926   25.2773   38.7300 C   0  0  0  0  0  0  0  0  0  0  0  0
   20.9874   25.5136   37.3827 C   0  0  0  0  0  0  0  0  0  0  0  0
   22.3907   25.6243   37.3372 C   0  0  0  0  0  0  0  0  0  0  0  0
   18.6273   23.2016   36.5160 C   0  0  0  0  0  0  0  0  0  0  0  0
   24.9697   26.1211   37.0529 H   0  0  0  0  0  0  0  0  0  0  0  0
   30.7582   28.6623   36.2441 H   0  0  0  0  0  0  0  0  0  0  0  0
   32.0994   29.2455   34.2469 H   0  0  0  0  0  0  0  0  0  0  0  0
   31.0716   28.9442   31.9898 H   0  0  0  0  0  0  0  0  0  0  0  0
   28.9437   27.8129   31.7669 H   0  0  0  0  0  0  0  0  0  0  0  0
   26.3616   25.9529   32.2110 H   0  0  0  0  0  0  0  0  0  0  0  0
   26.7155   27.6567   31.7926 H   0  0  0  0  0  0  0  0  0  0  0  0
   20.4150   26.3096   34.1133 H   0  0  0  0  0  0  0  0  0  0  0  0
   17.0783   24.6580   36.2725 H   0  0  0  0  0  0  0  0  0  0  0  0
   18.8946   25.0385   40.1357 H   0  0  0  0  0  0  0  0  0  0  0  0
   21.0855   25.3006   39.5644 H   0  0  0  0  0  0  0  0  0  0  0  0
   22.9815   25.4611   38.2313 H   0  0  0  0  0  0  0  0  0  0  0  0
   18.7140   22.9961   35.4281 H   0  0  0  0  0  0  0  0  0  0  0  0
   19.6253   23.0687   36.9825 H   0  0  0  0  0  0  0  0  0  0  0  0
   17.9278   22.4611   36.9595 H   0  0  0  0  0  0  0  0  0  0  0  0
  1  2  1  0
  2  3  2  0
  2  4  1  0
  4  5  2  0
  5  6  1  0
  6  7  2  0
  7  8  1  0
  8  9  2  0
  9 10  1  0
 10 11  2  0
 11 12  1  0
 12 13  2  0
 13 14  1  0
  1 15  1  0
 15 16  2  0
 16 17  1  0
 17 18  2  0
 18 19  1  0
 19 20  1  0
 20 21  1  0
 21 22  2  0
 21 23  1  0
 23 24  2  0
 24 25  1  0
 25 26  2  0
 20 27  1  0
 13  4  1  0
 26 15  1  0
 12  7  1  0
 25 18  1  0
  1 28  1  0
  8 29  1  0
  9 30  1  0
 10 31  1  0
 11 32  1  0
 14 33  1  0
 14 34  1  0
 17 35  1  0
 20 36  1  0
 23 37  1  0
 24 38  1  0
 26 39  1  0
 27 40  1  0
 27 41  1  0
 27 42  1  0
M  END
$$$$
confid_3
     RDKit          3D

 42 45  0  0  0  0  0  0  0  0999 V2000
   24.4800   26.1000   36.1300 N   0  0  0  0  0  0  0  0  0  0  0  0
   25.2500   26.2500   34.9900 C   0  0  0  0  0  0  0  0  0  0  0  0
   24.7400   25.7600   33.9900 O   0  0  0  0  0  0  0  0  0  0  0  0
   26.5900   26.8900   34.9600 C   0  0  0  0  0  0  0  0  0  0  0  0
   27.0600   27.2400   36.1600 N   0  0  0  0  0  0  0  0  0  0  0  0
   28.3000   27.7100   36.2400 N   0  0  0  0  0  0  0  0  0  0  0  0
   29.0500   27.9600   35.1500 C   0  0  0  0  0  0  0  0  0  0  0  0
   30.3400   28.4900   35.2600 C   0  0  0  0  0  0  0  0  0  0  0  0
   31.1100   28.8200   34.1400 C   0  0  0  0  0  0  0  0  0  0  0  0
   30.5200   28.6700   32.8800 C   0  0  0  0  0  0  0  0  0  0  0  0
   29.2900   28.0200   32.7700 C   0  0  0  0  0  0  0  0  0  0  0  0
   28.5200   27.7100   33.8900 C   0  0  0  0  0  0  0  0  0  0  0  0
   27.2700   27.0800   33.7600 C   0  0  0  0  0  0  0  0  0  0  0  0
   26.7500   26.8800   32.4900 N   0  0  0  0  0  0  0  0  0  0  0  0
   23.5363   25.0388   36.3653 C   0  0  0  0  0  0  0  0  0  0  0  0
   22.4648   25.2774   37.1620 N   0  0  0  0  0  0  0  0  0  0  0  0
   21.5548   24.3144   37.4490 C   0  0  0  0  0  0  0  0  0  0  0  0
   21.7033   23.0159   36.9504 C   0  0  0  0  0  0  0  0  0  0  0  0
   20.7456   22.0811   37.3484 O   0  0  0  0  0  0  0  0  0  0  0  0
   20.9998   20.7115   37.6240 C   0  0  0  0  0  0  0  0  0  0  0  0
   21.2464   19.9595   36.3596 C   0  0  0  0  0  0  0  0  0  0  0  0
   20.5402   18.9455   36.1110 O   0  0  0  0  0  0  0  0  0  0  0  0
   22.3266   20.2986   35.4266 C   0  0  0  0  0  0  0  0  0  0  0  0
   23.0146   21.4457   35.3605 C   0  0  0  0  0  0  0  0  0  0  0  0
   22.7979   22.7248   36.0970 C   0  0  0  0  0  0  0  0  0  0  0  0
   23.7236   23.7533   35.8345 C   0  0  0  0  0  0  0  0  0  0  0  0
   22.1384   20.5306   38.6348 C   0  0  0  0  0  0  0  0  0  0  0  0
   24.5546   26.8394   36.8646 H   0  0  0  0  0  0  0  0  0  0  0  0
   30.7580   28.6629   36.2441 H   0  0  0  0  0  0  0  0  0  0  0  0
   32.0983   29.2479   34.2470 H   0  0  0  0  0  0  0  0  0  0  0  0
   31.0669   28.9543   31.9901 H   0  0  0  0  0  0  0  0  0  0  0  0
   28.9258   27.8587   31.7656 H   0  0  0  0  0  0  0  0  0  0  0  0
   25.7672   27.1502   32.2658 H   0  0  0  0  0  0  0  0  0  0  0  0
   27.2968   26.3786   31.7554 H   0  0  0  0  0  0  0  0  0  0  0  0
   20.7196   24.5521   38.0950 H   0  0  0  0  0  0  0  0  0  0  0  0
   20.0796   20.3028   38.0967 H   0  0  0  0  0  0  0  0  0  0  0  0
   22.6053   19.5209   34.7242 H   0  0  0  0  0  0  0  0  0  0  0  0
   23.8104   21.4526   34.6233 H   0  0  0  0  0  0  0  0  0  0  0  0
   24.5926   23.5526   35.2199 H   0  0  0  0  0  0  0  0  0  0  0  0
   22.2362   19.4580   38.9072 H   0  0  0  0  0  0  0  0  0  0  0  0
   21.9152   21.1089   39.5563 H   0  0  0  0  0  0  0  0  0  0  0  0
   23.1074   20.8806   38.2226 H   0  0  0  0  0  0  0  0  0  0  0  0
  1  2  1  0
  2  3  2  0
  2  4  1  0
  4  5  2  0
  5  6  1  0
  6  7  2  0
  7  8  1  0
  8  9  2  0
  9 10  1  0
 10 11  2  0
 11 12  1  0
 12 13  2  0
 13 14  1  0
  1 15  1  0
 15 16  2  0
 16 17  1  0
 17 18  2  0
 18 19  1  0
 19 20  1  0
 20 21  1  0
 21 22  2  0
 21 23  1  0
 23 24  2  0
 24 25  1  0
 25 26  2  0
 20 27  1  0
 13  4  1  0
 26 15  1  0
 12  7  1  0
 25 18  1  0
  1 28  1  0
  8 29  1  0
  9 30  1  0
 10 31  1  0
 11 32  1  0
 14 33  1  0
 14 34  1  0
 17 35  1  0
 20 36  1  0
 23 37  1  0
 24 38  1  0
 26 39  1  0
 27 40  1  0
 27 41  1  0
 27 42  1  0
M  END
$$$$
confid_4
     RDKit          3D

 42 45  0  0  0  0  0  0  0  0999 V2000
   24.4800   26.1000   36.1300 N   0  0  0  0  0  0  0  0  0  0  0  0
   25.2500   26.2500   34.9900 C   0  0  0  0  0  0  0  0  0  0  0  0
   24.7400   25.7600   33.9900 O   0  0  0  0  0  0  0  0  0  0  0  0
   26.5900   26.8900   34.9600 C   0  0  0  0  0  0  0  0  0  0  0  0
   27.0600   27.2400   36.1600 N   0  0  0  0  0  0  0  0  0  0  0  0
   28.3000   27.7100   36.2400 N   0  0  0  0  0  0  0  0  0  0  0  0
   29.0500   27.9600   35.1500 C   0  0  0  0  0  0  0  0  0  0  0  0
   30.3400   28.4900   35.2600 C   0  0  0  0  0  0  0  0  0  0  0  0
   31.1100   28.8200   34.1400 C   0  0  0  0  0  0  0  0  0  0  0  0
   30.5200   28.6700   32.8800 C   0  0  0  0  0  0  0  0  0  0  0  0
   29.2900   28.0200   32.7700 C   0  0  0  0  0  0  0  0  0  0  0  0
   28.5200   27.7100   33.8900 C   0  0  0  0  0  0  0  0  0  0  0  0
   27.2700   27.0800   33.7600 C   0  0  0  0  0  0  0  0  0  0  0  0
   26.7500   26.8800   32.4900 N   0  0  0  0  0  0  0  0  0  0  0  0
   23.0419   26.0422   36.1576 C   0  0  0  0  0  0  0  0  0  0  0  0
   22.4311   25.3667   37.1628 N   0  0  0  0  0  0  0  0  0  0  0  0
   21.0810   25.2971   37.2648 C   0  0  0  0  0  0  0  0  0  0  0  0
   20.2575   25.9493   36.3412 C   0  0  0  0  0  0  0  0  0  0  0  0
   18.8817   25.8663   36.5639 O   0  0  0  0  0  0  0  0  0  0  0  0
   17.9452   26.9040   36.3140 C   0  0  0  0  0  0  0  0  0  0  0  0
   17.7244   27.0688   34.8480 C   0  0  0  0  0  0  0  0  0  0  0  0
   16.5477   26.9989   34.4016 O   0  0  0  0  0  0  0  0  0  0  0  0
   18.8052   27.3869   33.9083 C   0  0  0  0  0  0  0  0  0  0  0  0
   20.1231   27.2621   34.1116 C   0  0  0  0  0  0  0  0  0  0  0  0
   20.8514   26.6509   35.2612 C   0  0  0  0  0  0  0  0  0  0  0  0
   22.2574   26.7050   35.2010 C   0  0  0  0  0  0  0  0  0  0  0  0
   18.3521   28.2196   36.9880 C   0  0  0  0  0  0  0  0  0  0  0  0
   24.9756   25.9834   37.0424 H   0  0  0  0  0  0  0  0  0  0  0  0
   30.7580   28.6629   36.2441 H   0  0  0  0  0  0  0  0  0  0  0  0
   32.0983   29.2479   34.2470 H   0  0  0  0  0  0  0  0  0  0  0  0
   31.0669   28.9543   31.9901 H   0  0  0  0  0  0  0  0  0  0  0  0
   28.9258   27.8587   31.7656 H   0  0  0  0  0  0  0  0  0  0  0  0
   27.2969   26.3789   31.7552 H   0  0  0  0  0  0  0  0  0  0  0  0
   25.7671   27.1499   32.2661 H   0  0  0  0  0  0  0  0  0  0  0  0
   20.6407   24.7512   38.0891 H   0  0  0  0  0  0  0  0  0  0  0  0
   16.9841   26.5876   36.7760 H   0  0  0  0  0  0  0  0  0  0  0  0
   18.4947   27.7831   32.9480 H   0  0  0  0  0  0  0  0  0  0  0  0
   20.7411   27.6121   33.2916 H   0  0  0  0  0  0  0  0  0  0  0  0
   22.7417   27.2661   34.4111 H   0  0  0  0  0  0  0  0  0  0  0  0
   19.2888   28.6262   36.5535 H   0  0  0  0  0  0  0  0  0  0  0  0
   18.5093   28.0498   38.0741 H   0  0  0  0  0  0  0  0  0  0  0  0
   17.5468   28.9745   36.8625 H   0  0  0  0  0  0  0  0  0  0  0  0
  1  2  1  0
  2  3  2  0
  2  4  1  0
  4  5  2  0
  5  6  1  0
  6  7  2  0
  7  8  1  0
  8  9  2  0
  9 10  1  0
 10 11  2  0
 11 12  1  0
 12 13  2  0
 13 14  1  0
  1 15  1  0
 15 16  2  0
 16 17  1  0
 17 18  2  0
 18 19  1  0
 19 20  1  0
 20 21  1  0
 21 22  2  0
 21 23  1  0
 23 24  2  0
 24 25  1  0
 25 26  2  0
 20 27  1  0
 13  4  1  0
 26 15  1  0
 12  7  1  0
 25 18  1  0
  1 28  1  0
  8 29  1  0
  9 30  1  0
 10 31  1  0
 11 32  1  0
 14 33  1  0
 14 34  1  0
 17 35  1  0
 20 36  1  0
 23 37  1  0
 24 38  1  0
 26 39  1  0
 27 40  1  0
 27 41  1  0
 27 42  1  0
M  END
$$$$
confid_5
     RDKit          3D

 42 45  0  0  0  0  0  0  0  0999 V2000
   24.4800   26.1000   36.1300 N   0  0  0  0  0  0  0  0  0  0  0  0
   25.2500   26.2500   34.9900 C   0  0  0  0  0  0  0  0  0  0  0  0
   24.7400   25.7600   33.9900 O   0  0  0  0  0  0  0  0  0  0  0  0
   26.5900   26.8900   34.9600 C   0  0  0  0  0  0  0  0  0  0  0  0
   27.0600   27.2400   36.1600 N   0  0  0  0  0  0  0  0  0  0  0  0
   28.3000   27.7100   36.2400 N   0  0  0  0  0  0  0  0  0  0  0  0
   29.0500   27.9600   35.1500 C   0  0  0  0  0  0  0  0  0  0  0  0
   30.3400   28.4900   35.2600 C   0  0  0  0  0  0  0  0  0  0  0  0
   31.1100   28.8200   34.1400 C   0  0  0  0  0  0  0  0  0  0  0  0
   30.5200   28.6700   32.8800 C   0  0  0  0  0  0  0  0  0  0  0  0
   29.2900   28.0200   32.7700 C   0  0  0  0  0  0  0  0  0  0  0  0
   28.5200   27.7100   33.8900 C   0  0  0  0  0  0  0  0  0  0  0  0
   27.2700   27.0800   33.7600 C   0  0  0  0  0  0  0  0  0  0  0  0
   26.7500   26.8800   32.4900 N   0  0  0  0  0  0  0  0  0  0  0  0
   23.4848   25.0771   36.3370 C   0  0  0  0  0  0  0  0  0  0  0  0
   23.4012   24.0083   35.5028 N   0  0  0  0  0  0  0  0  0  0  0  0
   22.4868   23.0245   35.6869 C   0  0  0  0  0  0  0  0  0  0  0  0
   21.5799   23.0793   36.7507 C   0  0  0  0  0  0  0  0  0  0  0  0
   20.6344   22.0541   36.8191 O   0  0  0  0  0  0  0  0  0  0  0  0
   19.2908   22.2035   37.2536 C   0  0  0  0  0  0  0  0  0  0  0  0
   19.2357   22.3900   38.7326 C   0  0  0  0  0  0  0  0  0  0  0  0
   18.5194   21.6086   39.4146 O   0  0  0  0  0  0  0  0  0  0  0  0
   19.9156   23.4904   39.4250 C   0  0  0  0  0  0  0  0  0  0  0  0
   20.9002   24.2650   38.9513 C   0  0  0  0  0  0  0  0  0  0  0  0
   21.6658   24.1504   37.6763 C   0  0  0  0  0  0  0  0  0  0  0  0
   22.6270   25.1523   37.4402 C   0  0  0  0  0  0  0  0  0  0  0  0
   18.5657   23.3265   36.5025 C   0  0  0  0  0  0  0  0  0  0  0  0
   24.6524   26.7667   36.9163 H   0  0  0  0  0  0  0  0  0  0  0  0
   30.7582   28.6623   36.2441 H   0  0  0  0  0  0  0  0  0  0  0  0
   32.0994   29.2455   34.2469 H   0  0  0  0  0  0  0  0  0  0  0  0
   31.0716   28.9442   31.9898 H   0  0  0  0  0  0  0  0  0  0  0  0
   28.9437   27.8129   31.7669 H   0  0  0  0  0  0  0  0  0  0  0  0
   26.7156   27.6566   31.7926 H   0  0  0  0  0  0  0  0  0  0  0  0
   26.3617   25.9528   32.2110 H   0  0  0  0  0  0  0  0  0  0  0  0
   22.4467   22.2017   34.9850 H   0  0  0  0  0  0  0  0  0  0  0  0
   18.7652   21.2556   37.0038 H   0  0  0  0  0  0  0  0  0  0  0  0
   19.5641   23.7063   40.4277 H   0  0  0  0  0  0  0  0  0  0  0  0
   21.2136   25.0575   39.6225 H   0  0  0  0  0  0  0  0  0  0  0  0
   22.7244   25.9886   38.1230 H   0  0  0  0  0  0  0  0  0  0  0  0
   19.0069   24.3189   36.7303 H   0  0  0  0  0  0  0  0  0  0  0  0
   18.6355   23.1499   35.4084 H   0  0  0  0  0  0  0  0  0  0  0  0
   17.4924   23.3422   36.7889 H   0  0  0  0  0  0  0  0  0  0  0  0
  1  2  1  0
  2  3  2  0
  2  4  1  0
  4  5  2  0
  5  6  1  0
  6  7  2  0
  7  8  1  0
  8  9  2  0
  9 10  1  0
 10 11  2  0
 11 12  1  0
 12 13  2  0
 13 14  1  0
  1 15  1  0
 15 16  2  0
 16 17  1  0
 17 18  2  0
 18 19  1  0
 19 20  1  0
 20 21  1  0
 21 22  2  0
 21 23  1  0
 23 24  2  0
 24 25  1  0
 25 26  2  0
 20 27  1  0
 13  4  1  0
 26 15  1  0
 12  7  1  0
 25 18  1  0
  1 28  1  0
  8 29  1  0
  9 30  1  0
 10 31  1  0
 11 32  1  0
 14 33  1  0
 14 34  1  0
 17 35  1  0
 20 36  1  0
 23 37  1  0
 24 38  1  0
 26 39  1  0
 27 40  1  0
 27 41  1  0
 27 42  1  0
M  END
$$$$
confid_6
     RDKit          3D

 42 45  0  0  0  0  0  0  0  0999 V2000
   24.4800   26.1000   36.1300 N   0  0  0  0  0  0  0  0  0  0  0  0
   25.2500   26.2500   34.9900 C   0  0  0  0  0  0  0  0  0  0  0  0
   24.7400   25.7600   33.9900 O   0  0  0  0  0  0  0  0  0  0  0  0
   26.5900   26.8900   34.9600 C   0  0  0  0  0  0  0  0  0  0  0  0
   27.0600   27.2400   36.1600 N   0  0  0  0  0  0  0  0  0  0  0  0
   28.3000   27.7100   36.2400 N   0  0  0  0  0  0  0  0  0  0  0  0
   29.0500   27.9600   35.1500 C   0  0  0  0  0  0  0  0  0  0  0  0
   30.3400   28.4900   35.2600 C   0  0  0  0  0  0  0  0  0  0  0  0
   31.1100   28.8200   34.1400 C   0  0  0  0  0  0  0  0  0  0  0  0
   30.5200   28.6700   32.8800 C   0  0  0  0  0  0  0  0  0  0  0  0
   29.2900   28.0200   32.7700 C   0  0  0  0  0  0  0  0  0  0  0  0
   28.5200   27.7100   33.8900 C   0  0  0  0  0  0  0  0  0  0  0  0
   27.2700   27.0800   33.7600 C   0  0  0  0  0  0  0  0  0  0  0  0
   26.7500   26.8800   32.4900 N   0  0  0  0  0  0  0  0  0  0  0  0
   23.4842   25.0775   36.3369 C   0  0  0  0  0  0  0  0  0  0  0  0
   23.4006   24.0088   35.5026 N   0  0  0  0  0  0  0  0  0  0  0  0
   22.4858   23.0254   35.6855 C   0  0  0  0  0  0  0  0  0  0  0  0
   21.5782   23.0793   36.7485 C   0  0  0  0  0  0  0  0  0  0  0  0
   20.6241   22.0614   36.8053 O   0  0  0  0  0  0  0  0  0  0  0  0
   19.3211   22.2310   37.3306 C   0  0  0  0  0  0  0  0  0  0  0  0
   19.4023   22.2788   38.8219 C   0  0  0  0  0  0  0  0  0  0  0  0
   18.9140   21.3534   39.5263 O   0  0  0  0  0  0  0  0  0  0  0  0
   20.0069   23.4294   39.4924 C   0  0  0  0  0  0  0  0  0  0  0  0
   20.9108   24.2667   38.9656 C   0  0  0  0  0  0  0  0  0  0  0  0
   21.6669   24.1505   37.6800 C   0  0  0  0  0  0  0  0  0  0  0  0
   22.6270   25.1530   37.4405 C   0  0  0  0  0  0  0  0  0  0  0  0
   18.4287   21.0954   36.8246 C   0  0  0  0  0  0  0  0  0  0  0  0
   24.6527   26.7666   36.9163 H   0  0  0  0  0  0  0  0  0  0  0  0
   30.7580   28.6629   36.2441 H   0  0  0  0  0  0  0  0  0  0  0  0
   32.0983   29.2479   34.2470 H   0  0  0  0  0  0  0  0  0  0  0  0
   31.0669   28.9543   31.9901 H   0  0  0  0  0  0  0  0  0  0  0  0
   28.9258   27.8587   31.7656 H   0  0  0  0  0  0  0  0  0  0  0  0
   27.2969   26.3787   31.7554 H   0  0  0  0  0  0  0  0  0  0  0  0
   25.7673   27.1503   32.2658 H   0  0  0  0  0  0  0  0  0  0  0  0
   22.4444   22.2045   34.9813 H   0  0  0  0  0  0  0  0  0  0  0  0
   18.8919   23.1882   36.9578 H   0  0  0  0  0  0  0  0  0  0  0  0
   19.6741   23.6273   40.5049 H   0  0  0  0  0  0  0  0  0  0  0  0
   21.1871   25.0959   39.6080 H   0  0  0  0  0  0  0  0  0  0  0  0
   22.7273   25.9885   38.1237 H   0  0  0  0  0  0  0  0  0  0  0  0
   17.3965   21.2113   37.2193 H   0  0  0  0  0  0  0  0  0  0  0  0
   18.8346   20.1098   37.1389 H   0  0  0  0  0  0  0  0  0  0  0  0
   18.3847   21.1213   35.7151 H   0  0  0  0  0  0  0  0  0  0  0  0
  1  2  1  0
  2  3  2  0
  2  4  1  0
  4  5  2  0
  5  6  1  0
  6  7  2  0
  7  8  1  0
  8  9  2  0
  9 10  1  0
 10 11  2  0
 11 12  1  0
 12 13  2  0
 13 14  1  0
  1 15  1  0
 15 16  2  0
 16 17  1  0
 17 18  2  0
 18 19  1  0
 19 20  1  0
 20 21  1  0
 21 22  2  0
 21 23  1  0
 23 24  2  0
 24 25  1  0
 25 26  2  0
 20 27  1  0
 13  4  1  0
 26 15  1  0
 12  7  1  0
 25 18  1  0
  1 28  1  0
  8 29  1  0
  9 30  1  0
 10 31  1  0
 11 32  1  0
 14 33  1  0
 14 34  1  0
 17 35  1  0
 20 36  1  0
 23 37  1  0
 24 38  1  0
 26 39  1  0
 27 40  1  0
 27 41  1  0
 27 42  1  0
M  END
$$$$
confid_7
     RDKit          3D

 42 45  0  0  0  0  0  0  0  0999 V2000
   24.4800   26.1000   36.1300 N   0  0  0  0  0  0  0  0  0  0  0  0
   25.2500   26.2500   34.9900 C   0  0  0  0  0  0  0  0  0  0  0  0
   24.7400   25.7600   33.9900 O   0  0  0  0  0  0  0  0  0  0  0  0
   26.5900   26.8900   34.9600 C   0  0  0  0  0  0  0  0  0  0  0  0
   27.0600   27.2400   36.1600 N   0  0  0  0  0  0  0  0  0  0  0  0
   28.3000   27.7100   36.2400 N   0  0  0  0  0  0  0  0  0  0  0  0
   29.0500   27.9600   35.1500 C   0  0  0  0  0  0  0  0  0  0  0  0
   30.3400   28.4900   35.2600 C   0  0  0  0  0  0  0  0  0  0  0  0
   31.1100   28.8200   34.1400 C   0  0  0  0  0  0  0  0  0  0  0  0
   30.5200   28.6700   32.8800 C   0  0  0  0  0  0  0  0  0  0  0  0
   29.2900   28.0200   32.7700 C   0  0  0  0  0  0  0  0  0  0  0  0
   28.5200   27.7100   33.8900 C   0  0  0  0  0  0  0  0  0  0  0  0
   27.2700   27.0800   33.7600 C   0  0  0  0  0  0  0  0  0  0  0  0
   26.7500   26.8800   32.4900 N   0  0  0  0  0  0  0  0  0  0  0  0
   23.0443   25.9687   36.1480 C   0  0  0  0  0  0  0  0  0  0  0  0
   22.3092   26.2223   35.0343 N   0  0  0  0  0  0  0  0  0  0  0  0
   20.9573   26.1229   35.0287 C   0  0  0  0  0  0  0  0  0  0  0  0
   20.2617   25.7435   36.1816 C   0  0  0  0  0  0  0  0  0  0  0  0
   18.8796   25.5921   36.0536 O   0  0  0  0  0  0  0  0  0  0  0  0
   18.1147   24.6700   36.8069 C   0  0  0  0  0  0  0  0  0  0  0  0
   17.9587   25.1924   38.1982 C   0  0  0  0  0  0  0  0  0  0  0  0
   16.8311   25.5584   38.6291 O   0  0  0  0  0  0  0  0  0  0  0  0
   19.1070   25.2397   39.1028 C   0  0  0  0  0  0  0  0  0  0  0  0
   20.3961   25.2991   38.7419 C   0  0  0  0  0  0  0  0  0  0  0  0
   20.9862   25.5240   37.3857 C   0  0  0  0  0  0  0  0  0  0  0  0
   22.3900   25.6289   37.3376 C   0  0  0  0  0  0  0  0  0  0  0  0
   16.7724   24.4473   36.1066 C   0  0  0  0  0  0  0  0  0  0  0  0
   24.9700   26.1198   37.0528 H   0  0  0  0  0  0  0  0  0  0  0  0
   30.7580   28.6629   36.2441 H   0  0  0  0  0  0  0  0  0  0  0  0
   32.0983   29.2479   34.2470 H   0  0  0  0  0  0  0  0  0  0  0  0
   31.0669   28.9543   31.9901 H   0  0  0  0  0  0  0  0  0  0  0  0
   28.9258   27.8587   31.7656 H   0  0  0  0  0  0  0  0  0  0  0  0
   25.7672   27.1502   32.2659 H   0  0  0  0  0  0  0  0  0  0  0  0
   27.2969   26.3788   31.7553 H   0  0  0  0  0  0  0  0  0  0  0  0
   20.4170   26.3146   34.1107 H   0  0  0  0  0  0  0  0  0  0  0  0
   18.6428   23.6906   36.8422 H   0  0  0  0  0  0  0  0  0  0  0  0
   18.8869   25.2055   40.1637 H   0  0  0  0  0  0  0  0  0  0  0  0
   21.0986   25.2628   39.5676 H   0  0  0  0  0  0  0  0  0  0  0  0
   22.9815   25.4670   38.2314 H   0  0  0  0  0  0  0  0  0  0  0  0
   16.9459   24.0374   35.0889 H   0  0  0  0  0  0  0  0  0  0  0  0
   16.1559   23.7200   36.6772 H   0  0  0  0  0  0  0  0  0  0  0  0
   16.2175   25.4054   36.0113 H   0  0  0  0  0  0  0  0  0  0  0  0
  1  2  1  0
  2  3  2  0
  2  4  1  0
  4  5  2  0
  5  6  1  0
  6  7  2  0
  7  8  1  0
  8  9  2  0
  9 10  1  0
 10 11  2  0
 11 12  1  0
 12 13  2  0
 13 14  1  0
  1 15  1  0
 15 16  2  0
 16 17  1  0
 17 18  2  0
 18 19  1  0
 19 20  1  0
 20 21  1  0
 21 22  2  0
 21 23  1  0
 23 24  2  0
 24 25  1  0
 25 26  2  0
 20 27  1  0
 13  4  1  0
 26 15  1  0
 12  7  1  0
 25 18  1  0
  1 28  1  0
  8 29  1  0
  9 30  1  0
 10 31  1  0
 11 32  1  0
 14 33  1  0
 14 34  1  0
 17 35  1  0
 20 36  1  0
 23 37  1  0
 24 38  1  0
 26 39  1  0
 27 40  1  0
 27 41  1  0
 27 42  1  0
M  END
$$$$
