confid_0
     RDKit          3D

 46 49  0  0  0  0  0  0  0  0999 V2000
   24.6900   26.1200   35.5300 N   0  0  0  0  0  0  0  0  0  0  0  0
   25.6600   25.6700   34.6600 C   0  0  0  0  0  0  0  0  0  0  0  0
   25.2400   25.0100   33.7200 O   0  0  0  0  0  0  0  0  0  0  0  0
   27.0300   26.2200   34.8800 C   0  0  0  0  0  0  0  0  0  0  0  0
   27.3500   26.7300   36.0700 N   0  0  0  0  0  0  0  0  0  0  0  0
   28.5700   27.1800   36.3300 N   0  0  0  0  0  0  0  0  0  0  0  0
   29.5300   27.1100   35.3900 C   0  0  0  0  0  0  0  0  0  0  0  0
   30.8300   27.5700   35.6500 C   0  0  0  0  0  0  0  0  0  0  0  0
   31.8500   27.5400   34.6900 C   0  0  0  0  0  0  0  0  0  0  0  0
   31.5100   27.1200   33.4000 C   0  0  0  0  0  0  0  0  0  0  0  0
   30.2200   26.6300   33.1100 C   0  0  0  0  0  0  0  0  0  0  0  0
   29.2400   26.6600   34.1000 C   0  0  0  0  0  0  0  0  0  0  0  0
   27.9300   26.2600   33.8100 C   0  0  0  0  0  0  0  0  0  0  0  0
   27.5200   25.7100   32.6100 N   0  0  0  0  0  0  0  0  0  0  0  0
   31.1631   28.0803   36.9578 N   0  0  0  0  0  0  0  0  0  0  0  0
   32.0881   27.3278   37.8002 C   0  0  0  0  0  0  0  0  0  0  0  0
   31.2986   26.6653   38.9243 C   0  0  0  0  0  0  0  0  0  0  0  0
   30.4284   27.6291   39.6227 N   0  0  0  0  0  0  0  0  0  0  0  0
   29.8573   27.1921   40.9017 C   0  0  0  0  0  0  0  0  0  0  0  0
   29.9908   28.8561   38.9654 C   0  0  0  0  0  0  0  0  0  0  0  0
   29.2069   29.8327   39.6270 C   0  0  0  0  0  0  0  0  0  0  0  0
   28.7931   30.9808   38.9527 C   0  0  0  0  0  0  0  0  0  0  0  0
   29.1692   31.2014   37.6321 C   0  0  0  0  0  0  0  0  0  0  0  0
   29.9773   30.2774   36.9581 C   0  0  0  0  0  0  0  0  0  0  0  0
   30.4175   30.5932   35.5536 C   0  0  0  0  0  0  0  0  0  0  0  0
   30.3632   29.0822   37.6165 C   0  0  0  0  0  0  0  0  0  0  0  0
   28.8418   29.7063   40.9261 F   0  0  0  0  0  0  0  0  0  0  0  0
   24.8908   26.7905   36.3050 H   0  0  0  0  0  0  0  0  0  0  0  0
   23.6981   25.8078   35.4227 H   0  0  0  0  0  0  0  0  0  0  0  0
   32.8489   27.8937   34.9129 H   0  0  0  0  0  0  0  0  0  0  0  0
   32.2635   27.1281   32.6231 H   0  0  0  0  0  0  0  0  0  0  0  0
   30.0099   26.3039   32.1003 H   0  0  0  0  0  0  0  0  0  0  0  0
   26.6941   26.1028   32.1054 H   0  0  0  0  0  0  0  0  0  0  0  0
   28.1317   25.0436   32.0892 H   0  0  0  0  0  0  0  0  0  0  0  0
   32.8405   28.0230   38.2326 H   0  0  0  0  0  0  0  0  0  0  0  0
   32.6308   26.5525   37.2158 H   0  0  0  0  0  0  0  0  0  0  0  0
   32.0198   26.2143   39.6406 H   0  0  0  0  0  0  0  0  0  0  0  0
   30.6708   25.8521   38.4989 H   0  0  0  0  0  0  0  0  0  0  0  0
   30.2163   27.8501   41.7200 H   0  0  0  0  0  0  0  0  0  0  0  0
   30.1654   26.1531   41.1490 H   0  0  0  0  0  0  0  0  0  0  0  0
   28.7481   27.2039   40.8481 H   0  0  0  0  0  0  0  0  0  0  0  0
   28.1862   31.7167   39.4648 H   0  0  0  0  0  0  0  0  0  0  0  0
   28.8449   32.1108   37.1411 H   0  0  0  0  0  0  0  0  0  0  0  0
   31.4866   30.3291   35.4156 H   0  0  0  0  0  0  0  0  0  0  0  0
   30.3172   31.6774   35.3334 H   0  0  0  0  0  0  0  0  0  0  0  0
   29.7924   30.0325   34.8280 H   0  0  0  0  0  0  0  0  0  0  0  0
  1  2  1  0
  2  3  2  0
  2  4  1  0
  4  5  2  0
  5  6  1  0
  6  7  2  0
  7  8  1  0
  8  9  2  0
  9 10  1  0
 10 11  2  0
 11 12  1  0
 12 13  2  0
 13 14  1  0
  8 15  1  0
 15 16  1  0
 16 17  1  0
 17 18  1  0
 18 19  1  0
 18 20  1  0
 20 21  2  0
 21 22  1  0
 22 23  2  0
 23 24  1  0
 24 25  1  0
 24 26  2  0
 21 27  1  0
 13  4  1  0
 26 15  1  0
 12  7  1  0
 26 20  1  0
  1 28  1  0
  1 29  1  0
  9 30  1  0
 10 31  1  0
 11 32  1  0
 14 33  1  0
 14 34  1  0
 16 35  1  0
 16 36  1  0
 17 37  1  0
 17 38  1  0
 19 39  1  0
 19 40  1  0
 19 41  1  0
 22 42  1  0
 23 43  1  0
 25 44  1  0
 25 45  1  0
 25 46  1  0
M  END
$$$$
confid_1
     RDKit          3D

 46 49  0  0  0  0  0  0  0  0999 V2000
   24.6900   26.1200   35.5300 N   0  0  0  0  0  0  0  0  0  0  0  0
   25.6600   25.6700   34.6600 C   0  0  0  0  0  0  0  0  0  0  0  0
   25.2400   25.0100   33.7200 O   0  0  0  0  0  0  0  0  0  0  0  0
   27.0300   26.2200   34.8800 C   0  0  0  0  0  0  0  0  0  0  0  0
   27.3500   26.7300   36.0700 N   0  0  0  0  0  0  0  0  0  0  0  0
   28.5700   27.1800   36.3300 N   0  0  0  0  0  0  0  0  0  0  0  0
   29.5300   27.1100   35.3900 C   0  0  0  0  0  0  0  0  0  0  0  0
   30.8300   27.5700   35.6500 C   0  0  0  0  0  0  0  0  0  0  0  0
   31.8500   27.5400   34.6900 C   0  0  0  0  0  0  0  0  0  0  0  0
   31.5100   27.1200   33.4000 C   0  0  0  0  0  0  0  0  0  0  0  0
   30.2200   26.6300   33.1100 C   0  0  0  0  0  0  0  0  0  0  0  0
   29.2400   26.6600   34.1000 C   0  0  0  0  0  0  0  0  0  0  0  0
   27.9300   26.2600   33.8100 C   0  0  0  0  0  0  0  0  0  0  0  0
   27.5200   25.7100   32.6100 N   0  0  0  0  0  0  0  0  0  0  0  0
   31.1445   28.0747   36.9637 N   0  0  0  0  0  0  0  0  0  0  0  0
   30.5761   29.3521   37.3871 C   0  0  0  0  0  0  0  0  0  0  0  0
   31.6503   30.4295   37.2795 C   0  0  0  0  0  0  0  0  0  0  0  0
   32.8957   30.0277   37.9582 N   0  0  0  0  0  0  0  0  0  0  0  0
   33.8812   31.0861   38.2067 C   0  0  0  0  0  0  0  0  0  0  0  0
   33.2104   28.6190   38.1691 C   0  0  0  0  0  0  0  0  0  0  0  0
   34.3686   28.1962   38.8665 C   0  0  0  0  0  0  0  0  0  0  0  0
   34.6377   26.8376   39.0296 C   0  0  0  0  0  0  0  0  0  0  0  0
   33.7597   25.8772   38.5383 C   0  0  0  0  0  0  0  0  0  0  0  0
   32.5853   26.2585   37.8779 C   0  0  0  0  0  0  0  0  0  0  0  0
   31.6301   25.1877   37.4222 C   0  0  0  0  0  0  0  0  0  0  0  0
   32.3245   27.6350   37.6637 C   0  0  0  0  0  0  0  0  0  0  0  0
   35.2448   29.0754   39.4107 F   0  0  0  0  0  0  0  0  0  0  0  0
   23.6981   25.8078   35.4227 H   0  0  0  0  0  0  0  0  0  0  0  0
   24.8908   26.7905   36.3050 H   0  0  0  0  0  0  0  0  0  0  0  0
   32.8493   27.8939   34.9101 H   0  0  0  0  0  0  0  0  0  0  0  0
   32.2636   27.1277   32.6232 H   0  0  0  0  0  0  0  0  0  0  0  0
   30.0100   26.3036   32.1003 H   0  0  0  0  0  0  0  0  0  0  0  0
   26.6941   26.1028   32.1054 H   0  0  0  0  0  0  0  0  0  0  0  0
   28.1317   25.0435   32.0893 H   0  0  0  0  0  0  0  0  0  0  0  0
   29.7010   29.6346   36.7619 H   0  0  0  0  0  0  0  0  0  0  0  0
   30.2346   29.2708   38.4422 H   0  0  0  0  0  0  0  0  0  0  0  0
   31.8680   30.6227   36.2064 H   0  0  0  0  0  0  0  0  0  0  0  0
   31.2540   31.3651   37.7315 H   0  0  0  0  0  0  0  0  0  0  0  0
   34.0440   31.2015   39.2984 H   0  0  0  0  0  0  0  0  0  0  0  0
   33.5310   32.0658   37.8156 H   0  0  0  0  0  0  0  0  0  0  0  0
   34.8356   30.8470   37.6919 H   0  0  0  0  0  0  0  0  0  0  0  0
   35.5303   26.5250   39.5566 H   0  0  0  0  0  0  0  0  0  0  0  0
   33.9888   24.8301   38.6944 H   0  0  0  0  0  0  0  0  0  0  0  0
   31.8127   24.2306   37.9558 H   0  0  0  0  0  0  0  0  0  0  0  0
   31.7561   25.0092   36.3342 H   0  0  0  0  0  0  0  0  0  0  0  0
   30.5832   25.4879   37.6357 H   0  0  0  0  0  0  0  0  0  0  0  0
  1  2  1  0
  2  3  2  0
  2  4  1  0
  4  5  2  0
  5  6  1  0
  6  7  2  0
  7  8  1  0
  8  9  2  0
  9 10  1  0
 10 11  2  0
 11 12  1  0
 12 13  2  0
 13 14  1  0
  8 15  1  0
 15 16  1  0
 16 17  1  0
 17 18  1  0
 18 19  1  0
 18 20  1  0
 20 21  2  0
 21 22  1  0
 22 23  2  0
 23 24  1  0
 24 25  1  0
 24 26  2  0
 21 27  1  0
 13  4  1  0
 26 15  1  0
 12  7  1  0
 26 20  1  0
  1 28  1  0
  1 29  1  0
  9 30  1  0
 10 31  1  0
 11 32  1  0
 14 33  1  0
 14 34  1  0
 16 35  1  0
 16 36  1  0
 17 37  1  0
 17 38  1  0
 19 39  1  0
 19 40  1  0
 19 41  1  0
 22 42  1  0
 23 43  1  0
 25 44  1  0
 25 45  1  0
 25 46  1  0
M  END
$$$$
confid_2
     RDKit          3D

 46 49  0  0  0  0  0  0  0  0999 V2000
   24.6900   26.1200   35.5300 N   0  0  0  0  0  0  0  0  0  0  0  0
   25.6600   25.6700   34.6600 C   0  0  0  0  0  0  0  0  0  0  0  0
   25.2400   25.0100   33.7200 O   0  0  0  0  0  0  0  0  0  0  0  0
   27.0300   26.2200   34.8800 C   0  0  0  0  0  0  0  0  0  0  0  0
   27.3500   26.7300   36.0700 N   0  0  0  0  0  0  0  0  0  0  0  0
   28.5700   27.1800   36.3300 N   0  0  0  0  0  0  0  0  0  0  0  0
   29.5300   27.1100   35.3900 C   0  0  0  0  0  0  0  0  0  0  0  0
   30.8300   27.5700   35.6500 C   0  0  0  0  0  0  0  0  0  0  0  0
   31.8500   27.5400   34.6900 C   0  0  0  0  0  0  0  0  0  0  0  0
   31.5100   27.1200   33.4000 C   0  0  0  0  0  0  0  0  0  0  0  0
   30.2200   26.6300   33.1100 C   0  0  0  0  0  0  0  0  0  0  0  0
   29.2400   26.6600   34.1000 C   0  0  0  0  0  0  0  0  0  0  0  0
   27.9300   26.2600   33.8100 C   0  0  0  0  0  0  0  0  0  0  0  0
   27.5200   25.7100   32.6100 N   0  0  0  0  0  0  0  0  0  0  0  0
   31.1482   28.0645   36.9668 N   0  0  0  0  0  0  0  0  0  0  0  0
   31.1760   27.1307   38.0901 C   0  0  0  0  0  0  0  0  0  0  0  0
   32.6282   26.8123   38.4304 C   0  0  0  0  0  0  0  0  0  0  0  0
   33.4304   28.0377   38.5980 N   0  0  0  0  0  0  0  0  0  0  0  0
   34.7422   27.8838   39.2371 C   0  0  0  0  0  0  0  0  0  0  0  0
   33.0253   29.2880   37.9649 C   0  0  0  0  0  0  0  0  0  0  0  0
   33.7393   30.4977   38.1483 C   0  0  0  0  0  0  0  0  0  0  0  0
   33.3247   31.6658   37.5092 C   0  0  0  0  0  0  0  0  0  0  0  0
   32.1880   31.6699   36.7075 C   0  0  0  0  0  0  0  0  0  0  0  0
   31.4351   30.5021   36.5348 C   0  0  0  0  0  0  0  0  0  0  0  0
   30.1749   30.5677   35.7136 C   0  0  0  0  0  0  0  0  0  0  0  0
   31.8729   29.2975   37.1399 C   0  0  0  0  0  0  0  0  0  0  0  0
   34.8290   30.5784   38.9500 F   0  0  0  0  0  0  0  0  0  0  0  0
   24.8908   26.7906   36.3049 H   0  0  0  0  0  0  0  0  0  0  0  0
   23.6981   25.8078   35.4227 H   0  0  0  0  0  0  0  0  0  0  0  0
   32.8533   27.8798   34.9143 H   0  0  0  0  0  0  0  0  0  0  0  0
   32.2644   27.1249   32.6239 H   0  0  0  0  0  0  0  0  0  0  0  0
   30.0101   26.3032   32.1004 H   0  0  0  0  0  0  0  0  0  0  0  0
   26.6941   26.1029   32.1054 H   0  0  0  0  0  0  0  0  0  0  0  0
   28.1317   25.0435   32.0893 H   0  0  0  0  0  0  0  0  0  0  0  0
   30.6814   27.5985   38.9692 H   0  0  0  0  0  0  0  0  0  0  0  0
   30.6347   26.1895   37.8501 H   0  0  0  0  0  0  0  0  0  0  0  0
   32.6448   26.2141   39.3677 H   0  0  0  0  0  0  0  0  0  0  0  0
   33.0689   26.1991   37.6144 H   0  0  0  0  0  0  0  0  0  0  0  0
   34.7733   28.4672   40.1807 H   0  0  0  0  0  0  0  0  0  0  0  0
   34.9458   26.8217   39.4940 H   0  0  0  0  0  0  0  0  0  0  0  0
   35.5449   28.2158   38.5452 H   0  0  0  0  0  0  0  0  0  0  0  0
   33.8826   32.5830   37.6489 H   0  0  0  0  0  0  0  0  0  0  0  0
   31.8830   32.5967   36.2369 H   0  0  0  0  0  0  0  0  0  0  0  0
   29.8121   31.6130   35.6146 H   0  0  0  0  0  0  0  0  0  0  0  0
   29.3657   29.9845   36.2003 H   0  0  0  0  0  0  0  0  0  0  0  0
   30.3672   30.1680   34.6964 H   0  0  0  0  0  0  0  0  0  0  0  0
  1  2  1  0
  2  3  2  0
  2  4  1  0
  4  5  2  0
  5  6  1  0
  6  7  2  0
  7  8  1  0
  8  9  2  0
  9 10  1  0
 10 11  2  0
 11 12  1  0
 12 13  2  0
 13 14  1  0
  8 15  1  0
 15 16  1  0
 16 17  1  0
 17 18  1  0
 18 19  1  0
 18 20  1  0
 20 21  2  0
 21 22  1  0
 22 23  2  0
 23 24  1  0
 24 25  1  0
 24 26  2  0
 21 27  1  0
 13  4  1  0
 26 15  1  0
 12  7  1  0
 26 20  1  0
  1 28  1  0
  1 29  1  0
  9 30  1  0
 10 31  1  0
 11 32  1  0
 14 33  1  0
 14 34  1  0
 16 35  1  0
 16 36  1  0
 17 37  1  0
 17 38  1  0
 19 39  1  0
 19 40  1  0
 19 41  1  0
 22 42  1  0
 23 43  1  0
 25 44  1  0
 25 45  1  0
 25 46  1  0
M  END
$$$$
confid_3
     RDKit          3D

 46 49  0  0  0  0  0  0  0  0999 V2000
   24.6900   26.1200   35.5300 N   0  0  0  0  0  0  0  0  0  0  0  0
   25.6600   25.6700   34.6600 C   0  0  0  0  0  0  0  0  0  0  0  0
   25.2400   25.0100   33.7200 O   0  0  0  0  0  0  0  0  0  0  0  0
   27.0300   26.2200   34.8800 C   0  0  0  0  0  0  0  0  0  0  0  0
   27.3500   26.7300   36.0700 N   0  0  0  0  0  0  0  0  0  0  0  0
   28.5700   27.1800   36.3300 N   0  0  0  0  0  0  0  0  0  0  0  0
   29.5300   27.1100   35.3900 C   0  0  0  0  0  0  0  0  0  0  0  0
   30.8300   27.5700   35.6500 C   0  0  0  0  0  0  0  0  0  0  0  0
   31.8500   27.5400   34.6900 C   0  0  0  0  0  0  0  0  0  0  0  0
   31.5100   27.1200   33.4000 C   0  0  0  0  0  0  0  0  0  0  0  0
   30.2200   26.6300   33.1100 C   0  0  0  0  0  0  0  0  0  0  0  0
   29.2400   26.6600   34.1000 C   0  0  0  0  0  0  0  0  0  0  0  0
   27.9300   26.2600   33.8100 C   0  0  0  0  0  0  0  0  0  0  0  0
   27.5200   25.7100   32.6100 N   0  0  0  0  0  0  0  0  0  0  0  0
   31.1688   28.0628   36.9632 N   0  0  0  0  0  0  0  0  0  0  0  0
   31.5098   29.4730   37.1263 C   0  0  0  0  0  0  0  0  0  0  0  0
   30.3478   30.1814   37.8148 C   0  0  0  0  0  0  0  0  0  0  0  0
   29.9221   29.4736   39.0364 N   0  0  0  0  0  0  0  0  0  0  0  0
   29.0280   30.2044   39.9415 C   0  0  0  0  0  0  0  0  0  0  0  0
   30.2016   28.0527   39.2148 C   0  0  0  0  0  0  0  0  0  0  0  0
   29.8664   27.3571   40.4022 C   0  0  0  0  0  0  0  0  0  0  0  0
   30.1343   25.9939   40.5208 C   0  0  0  0  0  0  0  0  0  0  0  0
   30.7633   25.3030   39.4907 C   0  0  0  0  0  0  0  0  0  0  0  0
   31.1455   25.9662   38.3181 C   0  0  0  0  0  0  0  0  0  0  0  0
   31.8881   25.1936   37.2609 C   0  0  0  0  0  0  0  0  0  0  0  0
   30.8328   27.3406   38.1645 C   0  0  0  0  0  0  0  0  0  0  0  0
   29.2943   27.9755   41.4638 F   0  0  0  0  0  0  0  0  0  0  0  0
   23.6981   25.8079   35.4227 H   0  0  0  0  0  0  0  0  0  0  0  0
   24.8909   26.7901   36.3054 H   0  0  0  0  0  0  0  0  0  0  0  0
   32.8528   27.8797   34.9170 H   0  0  0  0  0  0  0  0  0  0  0  0
   32.2660   27.1190   32.6255 H   0  0  0  0  0  0  0  0  0  0  0  0
   30.0116   26.2779   32.1080 H   0  0  0  0  0  0  0  0  0  0  0  0
   27.6979   26.2229   31.7183 H   0  0  0  0  0  0  0  0  0  0  0  0
   27.3416   24.6831   32.5417 H   0  0  0  0  0  0  0  0  0  0  0  0
   32.4239   29.5602   37.7533 H   0  0  0  0  0  0  0  0  0  0  0  0
   31.7165   29.9568   36.1463 H   0  0  0  0  0  0  0  0  0  0  0  0
   29.4884   30.2399   37.1118 H   0  0  0  0  0  0  0  0  0  0  0  0
   30.6674   31.2164   38.0660 H   0  0  0  0  0  0  0  0  0  0  0  0
   28.0710   29.6535   40.0593 H   0  0  0  0  0  0  0  0  0  0  0  0
   29.5209   30.3468   40.9256 H   0  0  0  0  0  0  0  0  0  0  0  0
   28.7825   31.2122   39.5420 H   0  0  0  0  0  0  0  0  0  0  0  0
   29.8657   25.4695   41.4291 H   0  0  0  0  0  0  0  0  0  0  0  0
   30.9727   24.2481   39.6201 H   0  0  0  0  0  0  0  0  0  0  0  0
   32.7189   25.8033   36.8489 H   0  0  0  0  0  0  0  0  0  0  0  0
   31.1916   24.9039   36.4470 H   0  0  0  0  0  0  0  0  0  0  0  0
   32.3379   24.2679   37.6792 H   0  0  0  0  0  0  0  0  0  0  0  0
  1  2  1  0
  2  3  2  0
  2  4  1  0
  4  5  2  0
  5  6  1  0
  6  7  2  0
  7  8  1  0
  8  9  2  0
  9 10  1  0
 10 11  2  0
 11 12  1  0
 12 13  2  0
 13 14  1  0
  8 15  1  0
 15 16  1  0
 16 17  1  0
 17 18  1  0
 18 19  1  0
 18 20  1  0
 20 21  2  0
 21 22  1  0
 22 23  2  0
 23 24  1  0
 24 25  1  0
 24 26  2  0
 21 27  1  0
 13  4  1  0
 26 15  1  0
 12  7  1  0
 26 20  1  0
  1 28  1  0
  1 29  1  0
  9 30  1  0
 10 31  1  0
 11 32  1  0
 14 33  1  0
 14 34  1  0
 16 35  1  0
 16 36  1  0
 17 37  1  0
 17 38  1  0
 19 39  1  0
 19 40  1  0
 19 41  1  0
 22 42  1  0
 23 43  1  0
 25 44  1  0
 25 45  1  0
 25 46  1  0
M  END
$$$$
