confid_0
     RDKit          3D

 53 57  0  0  0  0  0  0  0  0999 V2000
   24.6900   26.1200   35.5300 N   0  0  0  0  0  0  0  0  0  0  0  0
   25.6600   25.6700   34.6600 C   0  0  0  0  0  0  0  0  0  0  0  0
   25.2400   25.0100   33.7200 O   0  0  0  0  0  0  0  0  0  0  0  0
   27.0300   26.2200   34.8800 C   0  0  0  0  0  0  0  0  0  0  0  0
   27.3500   26.7300   36.0700 N   0  0  0  0  0  0  0  0  0  0  0  0
   28.5700   27.1800   36.3300 N   0  0  0  0  0  0  0  0  0  0  0  0
   29.5300   27.1100   35.3900 C   0  0  0  0  0  0  0  0  0  0  0  0
   30.8300   27.5700   35.6500 C   0  0  0  0  0  0  0  0  0  0  0  0
   31.8500   27.5400   34.6900 C   0  0  0  0  0  0  0  0  0  0  0  0
   31.5100   27.1200   33.4000 C   0  0  0  0  0  0  0  0  0  0  0  0
   30.2200   26.6300   33.1100 C   0  0  0  0  0  0  0  0  0  0  0  0
   29.2400   26.6600   34.1000 C   0  0  0  0  0  0  0  0  0  0  0  0
   27.9300   26.2600   33.8100 C   0  0  0  0  0  0  0  0  0  0  0  0
   27.5200   25.7100   32.6100 N   0  0  0  0  0  0  0  0  0  0  0  0
   23.4339   25.4383   35.7117 C   0  0  0  0  0  0  0  0  0  0  0  0
   23.4399   24.1321   35.6911 N   0  0  0  0  0  0  0  0  0  0  0  0
   22.4207   23.1178   35.7325 C   0  0  0  0  0  0  0  0  0  0  0  0
   21.2312   23.2654   35.1625 C   0  0  0  0  0  0  0  0  0  0  0  0
   20.3314   22.4050   34.3195 C   0  0  0  0  0  0  0  0  0  0  0  0
   19.5639   23.4638   33.8376 O   0  0  0  0  0  0  0  0  0  0  0  0
   20.2645   24.3064   34.6950 C   0  0  0  0  0  0  0  0  0  0  0  0
   20.9594   25.4776   34.0033 C   0  0  0  0  0  0  0  0  0  0  0  0
   21.2636   26.4836   35.0846 C   0  0  0  0  0  0  0  0  0  0  0  0
   22.2404   26.2759   35.9967 C   0  0  0  0  0  0  0  0  0  0  0  0
   22.3176   27.1978   37.1861 C   0  0  0  0  0  0  0  0  0  0  0  0
   20.9207   27.4581   37.7524 C   0  0  0  0  0  0  0  0  0  0  0  0
   19.9819   27.8746   36.6968 N   0  0  0  0  0  0  0  0  0  0  0  0
   18.7579   28.5431   37.0790 C   0  0  0  0  0  0  0  0  0  0  0  0
   17.8632   29.1921   36.0636 C   0  0  0  0  0  0  0  0  0  0  0  0
   18.4068   28.5671   38.2913 O   0  0  0  0  0  0  0  0  0  0  0  0
   20.2996   27.6405   35.2738 C   0  0  0  0  0  0  0  0  0  0  0  0
   24.8093   27.0579   35.9738 H   0  0  0  0  0  0  0  0  0  0  0  0
   31.0670   27.9425   36.6390 H   0  0  0  0  0  0  0  0  0  0  0  0
   32.8479   27.8891   34.9211 H   0  0  0  0  0  0  0  0  0  0  0  0
   32.2640   27.1257   32.6237 H   0  0  0  0  0  0  0  0  0  0  0  0
   30.0105   26.3038   32.1003 H   0  0  0  0  0  0  0  0  0  0  0  0
   28.1336   25.0487   32.0857 H   0  0  0  0  0  0  0  0  0  0  0  0
   26.6925   26.1007   32.1069 H   0  0  0  0  0  0  0  0  0  0  0  0
   22.7690   22.1014   35.8379 H   0  0  0  0  0  0  0  0  0  0  0  0
   20.8866   21.9101   33.4903 H   0  0  0  0  0  0  0  0  0  0  0  0
   19.7307   21.6973   34.9292 H   0  0  0  0  0  0  0  0  0  0  0  0
   19.5938   24.6380   35.5263 H   0  0  0  0  0  0  0  0  0  0  0  0
   21.8812   25.1637   33.4659 H   0  0  0  0  0  0  0  0  0  0  0  0
   20.2730   25.9153   33.2462 H   0  0  0  0  0  0  0  0  0  0  0  0
   22.7748   28.1600   36.8754 H   0  0  0  0  0  0  0  0  0  0  0  0
   22.9496   26.7505   37.9827 H   0  0  0  0  0  0  0  0  0  0  0  0
   20.5363   26.5336   38.2393 H   0  0  0  0  0  0  0  0  0  0  0  0
   21.0051   28.2537   38.5251 H   0  0  0  0  0  0  0  0  0  0  0  0
   17.1557   29.8913   36.5617 H   0  0  0  0  0  0  0  0  0  0  0  0
   18.4670   29.7726   35.3311 H   0  0  0  0  0  0  0  0  0  0  0  0
   17.2786   28.4132   35.5306 H   0  0  0  0  0  0  0  0  0  0  0  0
   19.3665   27.4298   34.7099 H   0  0  0  0  0  0  0  0  0  0  0  0
   20.7558   28.5617   34.8494 H   0  0  0  0  0  0  0  0  0  0  0  0
  1  2  1  0
  2  3  2  0
  2  4  1  0
  4  5  2  0
  5  6  1  0
  6  7  2  0
  7  8  1  0
  8  9  2  0
  9 10  1  0
 10 11  2  0
 11 12  1  0
 12 13  2  0
 13 14  1  0
  1 15  1  0
 15 16  2  0
 16 17  1  0
 17 18  2  0
 18 19  1  0
 19 20  1  0
 20 21  1  0
 21 22  1  0
 22 23  1  0
 23 24  2  0
 24 25  1  0
 25 26  1  0
 26 27  1  0
 27 28  1  0
 28 29  1  0
 28 30  2  0
 27 31  1  0
 13  4  1  0
 24 15  1  0
 12  7  1  0
 21 18  1  0
 31 23  1  0
  1 32  1  0
  8 33  1  0
  9 34  1  0
 10 35  1  0
 11 36  1  0
 14 37  1  0
 14 38  1  0
 17 39  1  0
 19 40  1  0
 19 41  1  0
 21 42  1  0
 22 43  1  0
 22 44  1  0
 25 45  1  0
 25 46  1  0
 26 47  1  0
 26 48  1  0
 29 49  1  0
 29 50  1  0
 29 51  1  0
 31 52  1  0
 31 53  1  0
M  END
$$$$
