confid_0
     RDKit          3D

 45 48  0  0  0  0  0  0  0  0999 V2000
   25.3300   26.2600   34.7600 N   0  0  0  0  0  0  0  0  0  0  0  0
   26.1200   25.9200   33.6900 C   0  0  0  0  0  0  0  0  0  0  0  0
   25.6300   25.1100   32.9400 O   0  0  0  0  0  0  0  0  0  0  0  0
   27.5200   26.3800   33.4600 C   0  0  0  0  0  0  0  0  0  0  0  0
   28.1600   26.6300   34.6100 N   0  0  0  0  0  0  0  0  0  0  0  0
   29.4800   26.8500   34.5700 N   0  0  0  0  0  0  0  0  0  0  0  0
   30.1900   26.7800   33.4400 C   0  0  0  0  0  0  0  0  0  0  0  0
   31.5600   27.0500   33.5000 C   0  0  0  0  0  0  0  0  0  0  0  0
   32.2700   27.2400   32.3100 C   0  0  0  0  0  0  0  0  0  0  0  0
   31.6100   27.2500   31.0800 C   0  0  0  0  0  0  0  0  0  0  0  0
   30.2700   26.8700   31.0600 C   0  0  0  0  0  0  0  0  0  0  0  0
   29.5100   26.6900   32.2300 C   0  0  0  0  0  0  0  0  0  0  0  0
   28.1400   26.4100   32.2000 C   0  0  0  0  0  0  0  0  0  0  0  0
   27.4300   26.1300   31.0500 N   0  0  0  0  0  0  0  0  0  0  0  0
   24.1875   25.5053   35.2151 C   0  0  0  0  0  0  0  0  0  0  0  0
   24.1653   24.1528   35.0251 N   0  0  0  0  0  0  0  0  0  0  0  0
   23.1379   23.4060   35.4880 C   0  0  0  0  0  0  0  0  0  0  0  0
   22.9814   21.9243   35.3292 C   0  0  0  0  0  0  0  0  0  0  0  0
   21.7145   21.6586   36.0110 N   0  0  0  0  0  0  0  0  0  0  0  0
   21.0796   20.3534   36.1378 C   0  0  0  0  0  0  0  0  0  0  0  0
   21.1958   22.8841   36.5178 C   0  0  0  0  0  0  0  0  0  0  0  0
   20.0928   22.9844   37.1174 O   0  0  0  0  0  0  0  0  0  0  0  0
   22.1035   23.9701   36.1942 C   0  0  0  0  0  0  0  0  0  0  0  0
   22.0745   25.3457   36.4665 C   0  0  0  0  0  0  0  0  0  0  0  0
   20.9557   25.9430   37.2835 C   0  0  0  0  0  0  0  0  0  0  0  0
   23.1128   26.1455   35.9051 C   0  0  0  0  0  0  0  0  0  0  0  0
   23.0897   27.6506   36.0417 C   0  0  0  0  0  0  0  0  0  0  0  0
   25.6219   27.0944   35.3165 H   0  0  0  0  0  0  0  0  0  0  0  0
   32.0668   27.1429   34.4530 H   0  0  0  0  0  0  0  0  0  0  0  0
   33.3284   27.4627   32.3495 H   0  0  0  0  0  0  0  0  0  0  0  0
   32.1496   27.4414   30.1613 H   0  0  0  0  0  0  0  0  0  0  0  0
   29.7983   26.8255   30.0886 H   0  0  0  0  0  0  0  0  0  0  0  0
   26.4125   26.3498   30.9736 H   0  0  0  0  0  0  0  0  0  0  0  0
   27.8913   25.7238   30.2073 H   0  0  0  0  0  0  0  0  0  0  0  0
   22.9095   21.6507   34.2554 H   0  0  0  0  0  0  0  0  0  0  0  0
   23.8128   21.3861   35.8315 H   0  0  0  0  0  0  0  0  0  0  0  0
   20.0816   20.3755   35.6527 H   0  0  0  0  0  0  0  0  0  0  0  0
   21.7016   19.5743   35.6489 H   0  0  0  0  0  0  0  0  0  0  0  0
   20.9617   20.0993   37.2118 H   0  0  0  0  0  0  0  0  0  0  0  0
   21.3120   26.8127   37.8732 H   0  0  0  0  0  0  0  0  0  0  0  0
   20.5667   25.2182   38.0257 H   0  0  0  0  0  0  0  0  0  0  0  0
   20.1316   26.2619   36.6118 H   0  0  0  0  0  0  0  0  0  0  0  0
   23.5847   28.1411   35.1784 H   0  0  0  0  0  0  0  0  0  0  0  0
   23.6013   27.9492   36.9801 H   0  0  0  0  0  0  0  0  0  0  0  0
   22.0507   28.0394   36.0461 H   0  0  0  0  0  0  0  0  0  0  0  0
  1  2  1  0
  2  3  2  0
  2  4  1  0
  4  5  2  0
  5  6  1  0
  6  7  2  0
  7  8  1  0
  8  9  2  0
  9 10  1  0
 10 11  2  0
 11 12  1  0
 12 13  2  0
 13 14  1  0
  1 15  1  0
 15 16  2  0
 16 17  1  0
 17 18  1  0
 18 19  1  0
 19 20  1  0
 19 21  1  0
 21 22  2  0
 21 23  1  0
 23 24  1  0
 24 25  1  0
 24 26  2  0
 26 27  1  0
 13  4  1  0
 26 15  1  0
 12  7  1  0
 23 17  2  0
  1 28  1  0
  8 29  1  0
  9 30  1  0
 10 31  1  0
 11 32  1  0
 14 33  1  0
 14 34  1  0
 18 35  1  0
 18 36  1  0
 20 37  1  0
 20 38  1  0
 20 39  1  0
 25 40  1  0
 25 41  1  0
 25 42  1  0
 27 43  1  0
 27 44  1  0
 27 45  1  0
M  END
$$$$
confid_1
     RDKit          3D

 45 48  0  0  0  0  0  0  0  0999 V2000
   25.3300   26.2600   34.7600 N   0  0  0  0  0  0  0  0  0  0  0  0
   26.1200   25.9200   33.6900 C   0  0  0  0  0  0  0  0  0  0  0  0
   25.6300   25.1100   32.9400 O   0  0  0  0  0  0  0  0  0  0  0  0
   27.5200   26.3800   33.4600 C   0  0  0  0  0  0  0  0  0  0  0  0
   28.1600   26.6300   34.6100 N   0  0  0  0  0  0  0  0  0  0  0  0
   29.4800   26.8500   34.5700 N   0  0  0  0  0  0  0  0  0  0  0  0
   30.1900   26.7800   33.4400 C   0  0  0  0  0  0  0  0  0  0  0  0
   31.5600   27.0500   33.5000 C   0  0  0  0  0  0  0  0  0  0  0  0
   32.2700   27.2400   32.3100 C   0  0  0  0  0  0  0  0  0  0  0  0
   31.6100   27.2500   31.0800 C   0  0  0  0  0  0  0  0  0  0  0  0
   30.2700   26.8700   31.0600 C   0  0  0  0  0  0  0  0  0  0  0  0
   29.5100   26.6900   32.2300 C   0  0  0  0  0  0  0  0  0  0  0  0
   28.1400   26.4100   32.2000 C   0  0  0  0  0  0  0  0  0  0  0  0
   27.4300   26.1300   31.0500 N   0  0  0  0  0  0  0  0  0  0  0  0
   23.9023   26.0598   34.8209 C   0  0  0  0  0  0  0  0  0  0  0  0
   23.1802   26.0596   33.6612 N   0  0  0  0  0  0  0  0  0  0  0  0
   21.8347   25.9317   33.6841 C   0  0  0  0  0  0  0  0  0  0  0  0
   20.9303   25.8925   32.4899 C   0  0  0  0  0  0  0  0  0  0  0  0
   19.6055   25.7438   33.0930 N   0  0  0  0  0  0  0  0  0  0  0  0
   18.3502   25.6374   32.3613 C   0  0  0  0  0  0  0  0  0  0  0  0
   19.7437   25.7049   34.5096 C   0  0  0  0  0  0  0  0  0  0  0  0
   18.7804   25.5429   35.3047 O   0  0  0  0  0  0  0  0  0  0  0  0
   21.1445   25.8352   34.8678 C   0  0  0  0  0  0  0  0  0  0  0  0
   21.8096   25.8680   36.1019 C   0  0  0  0  0  0  0  0  0  0  0  0
   21.0311   25.8056   37.3926 C   0  0  0  0  0  0  0  0  0  0  0  0
   23.2345   25.9163   36.0759 C   0  0  0  0  0  0  0  0  0  0  0  0
   24.0349   25.8272   37.3551 C   0  0  0  0  0  0  0  0  0  0  0  0
   25.7787   26.7877   35.5415 H   0  0  0  0  0  0  0  0  0  0  0  0
   32.0668   27.1425   34.4530 H   0  0  0  0  0  0  0  0  0  0  0  0
   33.3288   27.4608   32.3494 H   0  0  0  0  0  0  0  0  0  0  0  0
   32.1514   27.4336   30.1608 H   0  0  0  0  0  0  0  0  0  0  0  0
   29.8039   26.7907   30.0880 H   0  0  0  0  0  0  0  0  0  0  0  0
   26.8602   25.2630   30.9529 H   0  0  0  0  0  0  0  0  0  0  0  0
   27.5769   26.6941   30.1847 H   0  0  0  0  0  0  0  0  0  0  0  0
   20.9925   26.8431   31.9190 H   0  0  0  0  0  0  0  0  0  0  0  0
   21.1659   25.0168   31.8488 H   0  0  0  0  0  0  0  0  0  0  0  0
   17.6761   26.4690   32.6548 H   0  0  0  0  0  0  0  0  0  0  0  0
   17.8629   24.6679   32.5955 H   0  0  0  0  0  0  0  0  0  0  0  0
   18.5366   25.6927   31.2680 H   0  0  0  0  0  0  0  0  0  0  0  0
   21.5508   26.3567   38.2031 H   0  0  0  0  0  0  0  0  0  0  0  0
   20.8910   24.7465   37.6935 H   0  0  0  0  0  0  0  0  0  0  0  0
   20.0416   26.2931   37.2878 H   0  0  0  0  0  0  0  0  0  0  0  0
   25.0293   25.3676   37.1787 H   0  0  0  0  0  0  0  0  0  0  0  0
   23.5348   25.1723   38.0980 H   0  0  0  0  0  0  0  0  0  0  0  0
   24.1678   26.8420   37.7844 H   0  0  0  0  0  0  0  0  0  0  0  0
  1  2  1  0
  2  3  2  0
  2  4  1  0
  4  5  2  0
  5  6  1  0
  6  7  2  0
  7  8  1  0
  8  9  2  0
  9 10  1  0
 10 11  2  0
 11 12  1  0
 12 13  2  0
 13 14  1  0
  1 15  1  0
 15 16  2  0
 16 17  1  0
 17 18  1  0
 18 19  1  0
 19 20  1  0
 19 21  1  0
 21 22  2  0
 21 23  1  0
 23 24  1  0
 24 25  1  0
 24 26  2  0
 26 27  1  0
 13  4  1  0
 26 15  1  0
 12  7  1  0
 23 17  2  0
  1 28  1  0
  8 29  1  0
  9 30  1  0
 10 31  1  0
 11 32  1  0
 14 33  1  0
 14 34  1  0
 18 35  1  0
 18 36  1  0
 20 37  1  0
 20 38  1  0
 20 39  1  0
 25 40  1  0
 25 41  1  0
 25 42  1  0
 27 43  1  0
 27 44  1  0
 27 45  1  0
M  END
$$$$
