confid_0
     RDKit          3D

 39 42  0  0  0  0  0  0  0  0999 V2000
   24.5500   26.3900   36.2500 N   0  0  0  0  0  0  0  0  0  0  0  0
   25.6000   26.1300   35.4000 C   0  0  0  0  0  0  0  0  0  0  0  0
   25.4300   25.4300   34.4200 O   0  0  0  0  0  0  0  0  0  0  0  0
   26.9800   26.6300   35.7100 C   0  0  0  0  0  0  0  0  0  0  0  0
   27.3200   26.8200   36.9800 N   0  0  0  0  0  0  0  0  0  0  0  0
   28.4700   27.4000   37.3100 N   0  0  0  0  0  0  0  0  0  0  0  0
   29.4000   27.6300   36.3700 C   0  0  0  0  0  0  0  0  0  0  0  0
   30.6600   28.0500   36.8000 C   0  0  0  0  0  0  0  0  0  0  0  0
   31.5700   28.3600   35.7800 C   0  0  0  0  0  0  0  0  0  0  0  0
   31.3700   28.1000   34.4300 C   0  0  0  0  0  0  0  0  0  0  0  0
   30.1200   27.5900   34.0500 C   0  0  0  0  0  0  0  0  0  0  0  0
   29.1500   27.3400   35.0300 C   0  0  0  0  0  0  0  0  0  0  0  0
   27.8800   26.8900   34.6600 C   0  0  0  0  0  0  0  0  0  0  0  0
   27.4800   26.6100   33.3700 N   0  0  0  0  0  0  0  0  0  0  0  0
   30.9910   28.2840   38.2243 C   0  0  0  0  0  0  0  0  0  0  0  0
   31.0962   27.1731   39.0848 C   0  0  0  0  0  0  0  0  0  0  0  0
   31.4324   27.4003   40.4124 C   0  0  0  0  0  0  0  0  0  0  0  0
   31.5937   26.4645   41.4097 O   0  0  0  0  0  0  0  0  0  0  0  0
   31.9459   27.1127   42.6346 C   0  0  0  0  0  0  0  0  0  0  0  0
   31.9996   28.6296   42.3155 C   0  0  0  0  0  0  0  0  0  0  0  0
   31.6524   28.6564   40.8746 C   0  0  0  0  0  0  0  0  0  0  0  0
   31.5456   29.7424   40.0700 N   0  0  0  0  0  0  0  0  0  0  0  0
   31.2055   29.5934   38.7531 C   0  0  0  0  0  0  0  0  0  0  0  0
   31.0969   30.8271   37.8997 C   0  0  0  0  0  0  0  0  0  0  0  0
   32.3268   31.1074   37.3350 F   0  0  0  0  0  0  0  0  0  0  0  0
   30.6993   31.9048   38.6709 F   0  0  0  0  0  0  0  0  0  0  0  0
   23.6001   26.0040   36.0503 H   0  0  0  0  0  0  0  0  0  0  0  0
   24.6739   26.9932   37.0933 H   0  0  0  0  0  0  0  0  0  0  0  0
   32.5376   28.7548   36.0637 H   0  0  0  0  0  0  0  0  0  0  0  0
   32.1352   28.3162   33.6956 H   0  0  0  0  0  0  0  0  0  0  0  0
   29.9376   27.4171   32.9984 H   0  0  0  0  0  0  0  0  0  0  0  0
   28.1242   26.1386   32.6978 H   0  0  0  0  0  0  0  0  0  0  0  0
   26.5962   27.0149   32.9873 H   0  0  0  0  0  0  0  0  0  0  0  0
   30.9334   26.1642   38.7261 H   0  0  0  0  0  0  0  0  0  0  0  0
   31.1755   26.8997   43.4062 H   0  0  0  0  0  0  0  0  0  0  0  0
   32.9365   26.7477   42.9805 H   0  0  0  0  0  0  0  0  0  0  0  0
   31.2462   29.1929   42.9066 H   0  0  0  0  0  0  0  0  0  0  0  0
   33.0194   29.0398   42.4765 H   0  0  0  0  0  0  0  0  0  0  0  0
   30.3460   30.6899   37.0940 H   0  0  0  0  0  0  0  0  0  0  0  0
  1  2  1  0
  2  3  2  0
  2  4  1  0
  4  5  2  0
  5  6  1  0
  6  7  2  0
  7  8  1  0
  8  9  2  0
  9 10  1  0
 10 11  2  0
 11 12  1  0
 12 13  2  0
 13 14  1  0
  8 15  1  0
 15 16  2  0
 16 17  1  0
 17 18  1  0
 18 19  1  0
 19 20  1  0
 20 21  1  0
 21 22  1  0
 22 23  2  0
 23 24  1  0
 24 25  1  0
 24 26  1  0
 13  4  1  0
 23 15  1  0
 12  7  1  0
 21 17  2  0
  1 27  1  0
  1 28  1  0
  9 29  1  0
 10 30  1  0
 11 31  1  0
 14 32  1  0
 14 33  1  0
 16 34  1  0
 19 35  1  0
 19 36  1  0
 20 37  1  0
 20 38  1  0
 24 39  1  0
M  END
$$$$
confid_1
     RDKit          3D

 39 42  0  0  0  0  0  0  0  0999 V2000
   24.5500   26.3900   36.2500 N   0  0  0  0  0  0  0  0  0  0  0  0
   25.6000   26.1300   35.4000 C   0  0  0  0  0  0  0  0  0  0  0  0
   25.4300   25.4300   34.4200 O   0  0  0  0  0  0  0  0  0  0  0  0
   26.9800   26.6300   35.7100 C   0  0  0  0  0  0  0  0  0  0  0  0
   27.3200   26.8200   36.9800 N   0  0  0  0  0  0  0  0  0  0  0  0
   28.4700   27.4000   37.3100 N   0  0  0  0  0  0  0  0  0  0  0  0
   29.4000   27.6300   36.3700 C   0  0  0  0  0  0  0  0  0  0  0  0
   30.6600   28.0500   36.8000 C   0  0  0  0  0  0  0  0  0  0  0  0
   31.5700   28.3600   35.7800 C   0  0  0  0  0  0  0  0  0  0  0  0
   31.3700   28.1000   34.4300 C   0  0  0  0  0  0  0  0  0  0  0  0
   30.1200   27.5900   34.0500 C   0  0  0  0  0  0  0  0  0  0  0  0
   29.1500   27.3400   35.0300 C   0  0  0  0  0  0  0  0  0  0  0  0
   27.8800   26.8900   34.6600 C   0  0  0  0  0  0  0  0  0  0  0  0
   27.4800   26.6100   33.3700 N   0  0  0  0  0  0  0  0  0  0  0  0
   30.9886   28.2888   38.2212 C   0  0  0  0  0  0  0  0  0  0  0  0
   31.3465   27.1887   39.0238 C   0  0  0  0  0  0  0  0  0  0  0  0
   31.6548   27.4229   40.3572 C   0  0  0  0  0  0  0  0  0  0  0  0
   32.0289   26.4989   41.3072 O   0  0  0  0  0  0  0  0  0  0  0  0
   32.2572   27.1513   42.5590 C   0  0  0  0  0  0  0  0  0  0  0  0
   31.9804   28.6575   42.3129 C   0  0  0  0  0  0  0  0  0  0  0  0
   31.6110   28.6751   40.8774 C   0  0  0  0  0  0  0  0  0  0  0  0
   31.2611   29.7487   40.1267 N   0  0  0  0  0  0  0  0  0  0  0  0
   30.9420   29.5906   38.8059 C   0  0  0  0  0  0  0  0  0  0  0  0
   30.5498   30.8097   38.0177 C   0  0  0  0  0  0  0  0  0  0  0  0
   29.3245   30.6162   37.4063 F   0  0  0  0  0  0  0  0  0  0  0  0
   31.5090   31.0878   37.0623 F   0  0  0  0  0  0  0  0  0  0  0  0
   23.6001   26.0039   36.0504 H   0  0  0  0  0  0  0  0  0  0  0  0
   24.6739   26.9932   37.0933 H   0  0  0  0  0  0  0  0  0  0  0  0
   32.5358   28.7592   36.0651 H   0  0  0  0  0  0  0  0  0  0  0  0
   32.1366   28.3121   33.6959 H   0  0  0  0  0  0  0  0  0  0  0  0
   29.9367   27.3917   33.0017 H   0  0  0  0  0  0  0  0  0  0  0  0
   27.4182   25.6173   33.0515 H   0  0  0  0  0  0  0  0  0  0  0  0
   27.5827   27.3393   32.6301 H   0  0  0  0  0  0  0  0  0  0  0  0
   31.3863   26.1847   38.6195 H   0  0  0  0  0  0  0  0  0  0  0  0
   33.3091   26.9914   42.8786 H   0  0  0  0  0  0  0  0  0  0  0  0
   31.5643   26.7438   43.3258 H   0  0  0  0  0  0  0  0  0  0  0  0
   32.8918   29.2687   42.4865 H   0  0  0  0  0  0  0  0  0  0  0  0
   31.1343   29.0189   42.9356 H   0  0  0  0  0  0  0  0  0  0  0  0
   30.4652   31.6878   38.6927 H   0  0  0  0  0  0  0  0  0  0  0  0
  1  2  1  0
  2  3  2  0
  2  4  1  0
  4  5  2  0
  5  6  1  0
  6  7  2  0
  7  8  1  0
  8  9  2  0
  9 10  1  0
 10 11  2  0
 11 12  1  0
 12 13  2  0
 13 14  1  0
  8 15  1  0
 15 16  2  0
 16 17  1  0
 17 18  1  0
 18 19  1  0
 19 20  1  0
 20 21  1  0
 21 22  1  0
 22 23  2  0
 23 24  1  0
 24 25  1  0
 24 26  1  0
 13  4  1  0
 23 15  1  0
 12  7  1  0
 21 17  2  0
  1 27  1  0
  1 28  1  0
  9 29  1  0
 10 30  1  0
 11 31  1  0
 14 32  1  0
 14 33  1  0
 16 34  1  0
 19 35  1  0
 19 36  1  0
 20 37  1  0
 20 38  1  0
 24 39  1  0
M  END
$$$$
confid_2
     RDKit          3D

 39 42  0  0  0  0  0  0  0  0999 V2000
   24.5500   26.3900   36.2500 N   0  0  0  0  0  0  0  0  0  0  0  0
   25.6000   26.1300   35.4000 C   0  0  0  0  0  0  0  0  0  0  0  0
   25.4300   25.4300   34.4200 O   0  0  0  0  0  0  0  0  0  0  0  0
   26.9800   26.6300   35.7100 C   0  0  0  0  0  0  0  0  0  0  0  0
   27.3200   26.8200   36.9800 N   0  0  0  0  0  0  0  0  0  0  0  0
   28.4700   27.4000   37.3100 N   0  0  0  0  0  0  0  0  0  0  0  0
   29.4000   27.6300   36.3700 C   0  0  0  0  0  0  0  0  0  0  0  0
   30.6600   28.0500   36.8000 C   0  0  0  0  0  0  0  0  0  0  0  0
   31.5700   28.3600   35.7800 C   0  0  0  0  0  0  0  0  0  0  0  0
   31.3700   28.1000   34.4300 C   0  0  0  0  0  0  0  0  0  0  0  0
   30.1200   27.5900   34.0500 C   0  0  0  0  0  0  0  0  0  0  0  0
   29.1500   27.3400   35.0300 C   0  0  0  0  0  0  0  0  0  0  0  0
   27.8800   26.8900   34.6600 C   0  0  0  0  0  0  0  0  0  0  0  0
   27.4800   26.6100   33.3700 N   0  0  0  0  0  0  0  0  0  0  0  0
   30.9801   28.3276   38.2170 C   0  0  0  0  0  0  0  0  0  0  0  0
   30.4142   29.4605   38.8344 C   0  0  0  0  0  0  0  0  0  0  0  0
   30.7334   29.7115   40.1621 C   0  0  0  0  0  0  0  0  0  0  0  0
   30.2971   30.7550   40.9477 O   0  0  0  0  0  0  0  0  0  0  0  0
   30.8606   30.6482   42.2576 C   0  0  0  0  0  0  0  0  0  0  0  0
   31.7447   29.3740   42.2402 C   0  0  0  0  0  0  0  0  0  0  0  0
   31.5653   28.8901   40.8505 C   0  0  0  0  0  0  0  0  0  0  0  0
   32.1157   27.7898   40.2805 N   0  0  0  0  0  0  0  0  0  0  0  0
   31.8420   27.4805   38.9764 C   0  0  0  0  0  0  0  0  0  0  0  0
   32.4631   26.2421   38.3921 C   0  0  0  0  0  0  0  0  0  0  0  0
   31.4911   25.4348   37.8292 F   0  0  0  0  0  0  0  0  0  0  0  0
   33.3963   26.5861   37.4323 F   0  0  0  0  0  0  0  0  0  0  0  0
   23.6001   26.0039   36.0504 H   0  0  0  0  0  0  0  0  0  0  0  0
   24.6739   26.9932   37.0934 H   0  0  0  0  0  0  0  0  0  0  0  0
   32.5280   28.7791   36.0630 H   0  0  0  0  0  0  0  0  0  0  0  0
   32.1350   28.3163   33.6954 H   0  0  0  0  0  0  0  0  0  0  0  0
   29.9364   27.3926   33.0016 H   0  0  0  0  0  0  0  0  0  0  0  0
   27.4183   25.6173   33.0515 H   0  0  0  0  0  0  0  0  0  0  0  0
   27.5826   27.3394   32.6301 H   0  0  0  0  0  0  0  0  0  0  0  0
   29.7523   30.1260   38.2941 H   0  0  0  0  0  0  0  0  0  0  0  0
   31.4726   31.5491   42.4767 H   0  0  0  0  0  0  0  0  0  0  0  0
   30.0476   30.5532   43.0087 H   0  0  0  0  0  0  0  0  0  0  0  0
   31.3756   28.6173   42.9651 H   0  0  0  0  0  0  0  0  0  0  0  0
   32.8112   29.6203   42.4305 H   0  0  0  0  0  0  0  0  0  0  0  0
   32.9775   25.6625   39.1879 H   0  0  0  0  0  0  0  0  0  0  0  0
  1  2  1  0
  2  3  2  0
  2  4  1  0
  4  5  2  0
  5  6  1  0
  6  7  2  0
  7  8  1  0
  8  9  2  0
  9 10  1  0
 10 11  2  0
 11 12  1  0
 12 13  2  0
 13 14  1  0
  8 15  1  0
 15 16  2  0
 16 17  1  0
 17 18  1  0
 18 19  1  0
 19 20  1  0
 20 21  1  0
 21 22  1  0
 22 23  2  0
 23 24  1  0
 24 25  1  0
 24 26  1  0
 13  4  1  0
 23 15  1  0
 12  7  1  0
 21 17  2  0
  1 27  1  0
  1 28  1  0
  9 29  1  0
 10 30  1  0
 11 31  1  0
 14 32  1  0
 14 33  1  0
 16 34  1  0
 19 35  1  0
 19 36  1  0
 20 37  1  0
 20 38  1  0
 24 39  1  0
M  END
$$$$
confid_3
     RDKit          3D

 39 42  0  0  0  0  0  0  0  0999 V2000
   24.5500   26.3900   36.2500 N   0  0  0  0  0  0  0  0  0  0  0  0
   25.6000   26.1300   35.4000 C   0  0  0  0  0  0  0  0  0  0  0  0
   25.4300   25.4300   34.4200 O   0  0  0  0  0  0  0  0  0  0  0  0
   26.9800   26.6300   35.7100 C   0  0  0  0  0  0  0  0  0  0  0  0
   27.3200   26.8200   36.9800 N   0  0  0  0  0  0  0  0  0  0  0  0
   28.4700   27.4000   37.3100 N   0  0  0  0  0  0  0  0  0  0  0  0
   29.4000   27.6300   36.3700 C   0  0  0  0  0  0  0  0  0  0  0  0
   30.6600   28.0500   36.8000 C   0  0  0  0  0  0  0  0  0  0  0  0
   31.5700   28.3600   35.7800 C   0  0  0  0  0  0  0  0  0  0  0  0
   31.3700   28.1000   34.4300 C   0  0  0  0  0  0  0  0  0  0  0  0
   30.1200   27.5900   34.0500 C   0  0  0  0  0  0  0  0  0  0  0  0
   29.1500   27.3400   35.0300 C   0  0  0  0  0  0  0  0  0  0  0  0
   27.8800   26.8900   34.6600 C   0  0  0  0  0  0  0  0  0  0  0  0
   27.4800   26.6100   33.3700 N   0  0  0  0  0  0  0  0  0  0  0  0
   30.9879   28.3237   38.2191 C   0  0  0  0  0  0  0  0  0  0  0  0
   30.2859   29.3384   38.9014 C   0  0  0  0  0  0  0  0  0  0  0  0
   30.6305   29.6029   40.2199 C   0  0  0  0  0  0  0  0  0  0  0  0
   30.0807   30.5471   41.0581 O   0  0  0  0  0  0  0  0  0  0  0  0
   30.7246   30.5009   42.3340 C   0  0  0  0  0  0  0  0  0  0  0  0
   31.7955   29.3835   42.2322 C   0  0  0  0  0  0  0  0  0  0  0  0
   31.6162   28.9073   40.8398 C   0  0  0  0  0  0  0  0  0  0  0  0
   32.3026   27.9241   40.2075 N   0  0  0  0  0  0  0  0  0  0  0  0
   32.0071   27.6015   38.9111 C   0  0  0  0  0  0  0  0  0  0  0  0
   32.7982   26.5077   38.2479 C   0  0  0  0  0  0  0  0  0  0  0  0
   33.9033   27.0522   37.6216 F   0  0  0  0  0  0  0  0  0  0  0  0
   33.2220   25.5879   39.1906 F   0  0  0  0  0  0  0  0  0  0  0  0
   24.6739   26.9932   37.0933 H   0  0  0  0  0  0  0  0  0  0  0  0
   23.6001   26.0040   36.0503 H   0  0  0  0  0  0  0  0  0  0  0  0
   32.5271   28.7818   36.0613 H   0  0  0  0  0  0  0  0  0  0  0  0
   32.1329   28.3221   33.6949 H   0  0  0  0  0  0  0  0  0  0  0  0
   29.9371   27.4184   32.9982 H   0  0  0  0  0  0  0  0  0  0  0  0
   26.5962   27.0149   32.9873 H   0  0  0  0  0  0  0  0  0  0  0  0
   28.1243   26.1388   32.6978 H   0  0  0  0  0  0  0  0  0  0  0  0
   29.5071   29.9120   38.4143 H   0  0  0  0  0  0  0  0  0  0  0  0
   29.9788   30.2608   43.1216 H   0  0  0  0  0  0  0  0  0  0  0  0
   31.1985   31.4820   42.5504 H   0  0  0  0  0  0  0  0  0  0  0  0
   32.8190   29.7918   42.3736 H   0  0  0  0  0  0  0  0  0  0  0  0
   31.5915   28.5625   42.9523 H   0  0  0  0  0  0  0  0  0  0  0  0
   32.1811   25.9687   37.4990 H   0  0  0  0  0  0  0  0  0  0  0  0
  1  2  1  0
  2  3  2  0
  2  4  1  0
  4  5  2  0
  5  6  1  0
  6  7  2  0
  7  8  1  0
  8  9  2  0
  9 10  1  0
 10 11  2  0
 11 12  1  0
 12 13  2  0
 13 14  1  0
  8 15  1  0
 15 16  2  0
 16 17  1  0
 17 18  1  0
 18 19  1  0
 19 20  1  0
 20 21  1  0
 21 22  1  0
 22 23  2  0
 23 24  1  0
 24 25  1  0
 24 26  1  0
 13  4  1  0
 23 15  1  0
 12  7  1  0
 21 17  2  0
  1 27  1  0
  1 28  1  0
  9 29  1  0
 10 30  1  0
 11 31  1  0
 14 32  1  0
 14 33  1  0
 16 34  1  0
 19 35  1  0
 19 36  1  0
 20 37  1  0
 20 38  1  0
 24 39  1  0
M  END
$$$$
confid_4
     RDKit          3D

 39 42  0  0  0  0  0  0  0  0999 V2000
   24.5500   26.3900   36.2500 N   0  0  0  0  0  0  0  0  0  0  0  0
   25.6000   26.1300   35.4000 C   0  0  0  0  0  0  0  0  0  0  0  0
   25.4300   25.4300   34.4200 O   0  0  0  0  0  0  0  0  0  0  0  0
   26.9800   26.6300   35.7100 C   0  0  0  0  0  0  0  0  0  0  0  0
   27.3200   26.8200   36.9800 N   0  0  0  0  0  0  0  0  0  0  0  0
   28.4700   27.4000   37.3100 N   0  0  0  0  0  0  0  0  0  0  0  0
   29.4000   27.6300   36.3700 C   0  0  0  0  0  0  0  0  0  0  0  0
   30.6600   28.0500   36.8000 C   0  0  0  0  0  0  0  0  0  0  0  0
   31.5700   28.3600   35.7800 C   0  0  0  0  0  0  0  0  0  0  0  0
   31.3700   28.1000   34.4300 C   0  0  0  0  0  0  0  0  0  0  0  0
   30.1200   27.5900   34.0500 C   0  0  0  0  0  0  0  0  0  0  0  0
   29.1500   27.3400   35.0300 C   0  0  0  0  0  0  0  0  0  0  0  0
   27.8800   26.8900   34.6600 C   0  0  0  0  0  0  0  0  0  0  0  0
   27.4800   26.6100   33.3700 N   0  0  0  0  0  0  0  0  0  0  0  0
   30.9885   28.2893   38.2211 C   0  0  0  0  0  0  0  0  0  0  0  0
   31.3479   27.1896   39.0237 C   0  0  0  0  0  0  0  0  0  0  0  0
   31.6560   27.4242   40.3570 C   0  0  0  0  0  0  0  0  0  0  0  0
   32.0315   26.5007   41.3071 O   0  0  0  0  0  0  0  0  0  0  0  0
   32.2590   27.1534   42.5588 C   0  0  0  0  0  0  0  0  0  0  0  0
   31.9802   28.6592   42.3128 C   0  0  0  0  0  0  0  0  0  0  0  0
   31.6106   28.6764   40.8773 C   0  0  0  0  0  0  0  0  0  0  0  0
   31.2592   29.7495   40.1267 N   0  0  0  0  0  0  0  0  0  0  0  0
   30.9403   29.5910   38.8058 C   0  0  0  0  0  0  0  0  0  0  0  0
   30.5465   30.8096   38.0176 C   0  0  0  0  0  0  0  0  0  0  0  0
   31.5048   31.0883   37.0616 F   0  0  0  0  0  0  0  0  0  0  0  0
   29.3210   30.6148   37.4071 F   0  0  0  0  0  0  0  0  0  0  0  0
   23.6001   26.0040   36.0503 H   0  0  0  0  0  0  0  0  0  0  0  0
   24.6739   26.9932   37.0933 H   0  0  0  0  0  0  0  0  0  0  0  0
   32.5353   28.7605   36.0650 H   0  0  0  0  0  0  0  0  0  0  0  0
   32.1347   28.3175   33.6954 H   0  0  0  0  0  0  0  0  0  0  0  0
   29.9375   27.4174   32.9983 H   0  0  0  0  0  0  0  0  0  0  0  0
   26.5962   27.0149   32.9873 H   0  0  0  0  0  0  0  0  0  0  0  0
   28.1243   26.1387   32.6978 H   0  0  0  0  0  0  0  0  0  0  0  0
   31.3890   26.1857   38.6194 H   0  0  0  0  0  0  0  0  0  0  0  0
   33.3111   26.9949   42.8783 H   0  0  0  0  0  0  0  0  0  0  0  0
   31.5667   26.7450   43.3257 H   0  0  0  0  0  0  0  0  0  0  0  0
   31.1337   29.0195   42.9355 H   0  0  0  0  0  0  0  0  0  0  0  0
   32.8907   29.2716   42.4862 H   0  0  0  0  0  0  0  0  0  0  0  0
   30.4615   31.6877   38.6925 H   0  0  0  0  0  0  0  0  0  0  0  0
  1  2  1  0
  2  3  2  0
  2  4  1  0
  4  5  2  0
  5  6  1  0
  6  7  2  0
  7  8  1  0
  8  9  2  0
  9 10  1  0
 10 11  2  0
 11 12  1  0
 12 13  2  0
 13 14  1  0
  8 15  1  0
 15 16  2  0
 16 17  1  0
 17 18  1  0
 18 19  1  0
 19 20  1  0
 20 21  1  0
 21 22  1  0
 22 23  2  0
 23 24  1  0
 24 25  1  0
 24 26  1  0
 13  4  1  0
 23 15  1  0
 12  7  1  0
 21 17  2  0
  1 27  1  0
  1 28  1  0
  9 29  1  0
 10 30  1  0
 11 31  1  0
 14 32  1  0
 14 33  1  0
 16 34  1  0
 19 35  1  0
 19 36  1  0
 20 37  1  0
 20 38  1  0
 24 39  1  0
M  END
$$$$
confid_5
     RDKit          3D

 39 42  0  0  0  0  0  0  0  0999 V2000
   24.5500   26.3900   36.2500 N   0  0  0  0  0  0  0  0  0  0  0  0
   25.6000   26.1300   35.4000 C   0  0  0  0  0  0  0  0  0  0  0  0
   25.4300   25.4300   34.4200 O   0  0  0  0  0  0  0  0  0  0  0  0
   26.9800   26.6300   35.7100 C   0  0  0  0  0  0  0  0  0  0  0  0
   27.3200   26.8200   36.9800 N   0  0  0  0  0  0  0  0  0  0  0  0
   28.4700   27.4000   37.3100 N   0  0  0  0  0  0  0  0  0  0  0  0
   29.4000   27.6300   36.3700 C   0  0  0  0  0  0  0  0  0  0  0  0
   30.6600   28.0500   36.8000 C   0  0  0  0  0  0  0  0  0  0  0  0
   31.5700   28.3600   35.7800 C   0  0  0  0  0  0  0  0  0  0  0  0
   31.3700   28.1000   34.4300 C   0  0  0  0  0  0  0  0  0  0  0  0
   30.1200   27.5900   34.0500 C   0  0  0  0  0  0  0  0  0  0  0  0
   29.1500   27.3400   35.0300 C   0  0  0  0  0  0  0  0  0  0  0  0
   27.8800   26.8900   34.6600 C   0  0  0  0  0  0  0  0  0  0  0  0
   27.4800   26.6100   33.3700 N   0  0  0  0  0  0  0  0  0  0  0  0
   30.9869   28.3211   38.2154 C   0  0  0  0  0  0  0  0  0  0  0  0
   31.7739   27.3885   38.9176 C   0  0  0  0  0  0  0  0  0  0  0  0
   32.0577   27.6445   40.2525 C   0  0  0  0  0  0  0  0  0  0  0  0
   32.7947   26.8675   41.1182 O   0  0  0  0  0  0  0  0  0  0  0  0
   32.8439   27.4852   42.4069 C   0  0  0  0  0  0  0  0  0  0  0  0
   32.0275   28.7982   42.2832 C   0  0  0  0  0  0  0  0  0  0  0  0
   31.5946   28.7627   40.8659 C   0  0  0  0  0  0  0  0  0  0  0  0
   30.8445   29.6804   40.2072 N   0  0  0  0  0  0  0  0  0  0  0  0
   30.5375   29.4980   38.8864 C   0  0  0  0  0  0  0  0  0  0  0  0
   29.6917   30.5335   38.1973 C   0  0  0  0  0  0  0  0  0  0  0  0
   29.9138   31.7785   38.7583 F   0  0  0  0  0  0  0  0  0  0  0  0
   28.3562   30.2075   38.3390 F   0  0  0  0  0  0  0  0  0  0  0  0
   23.6001   26.0040   36.0503 H   0  0  0  0  0  0  0  0  0  0  0  0
   24.6739   26.9933   37.0932 H   0  0  0  0  0  0  0  0  0  0  0  0
   32.5304   28.7728   36.0645 H   0  0  0  0  0  0  0  0  0  0  0  0
   32.1336   28.3203   33.6951 H   0  0  0  0  0  0  0  0  0  0  0  0
   29.9372   27.4181   32.9983 H   0  0  0  0  0  0  0  0  0  0  0  0
   28.1243   26.1388   32.6978 H   0  0  0  0  0  0  0  0  0  0  0  0
   26.5962   27.0149   32.9874 H   0  0  0  0  0  0  0  0  0  0  0  0
   32.1421   26.4886   38.4408 H   0  0  0  0  0  0  0  0  0  0  0  0
   32.3911   26.8098   43.1638 H   0  0  0  0  0  0  0  0  0  0  0  0
   33.8991   27.7018   42.6785 H   0  0  0  0  0  0  0  0  0  0  0  0
   32.6646   29.6885   42.4721 H   0  0  0  0  0  0  0  0  0  0  0  0
   31.1454   28.7897   42.9585 H   0  0  0  0  0  0  0  0  0  0  0  0
   29.9391   30.5969   37.1173 H   0  0  0  0  0  0  0  0  0  0  0  0
  1  2  1  0
  2  3  2  0
  2  4  1  0
  4  5  2  0
  5  6  1  0
  6  7  2  0
  7  8  1  0
  8  9  2  0
  9 10  1  0
 10 11  2  0
 11 12  1  0
 12 13  2  0
 13 14  1  0
  8 15  1  0
 15 16  2  0
 16 17  1  0
 17 18  1  0
 18 19  1  0
 19 20  1  0
 20 21  1  0
 21 22  1  0
 22 23  2  0
 23 24  1  0
 24 25  1  0
 24 26  1  0
 13  4  1  0
 23 15  1  0
 12  7  1  0
 21 17  2  0
  1 27  1  0
  1 28  1  0
  9 29  1  0
 10 30  1  0
 11 31  1  0
 14 32  1  0
 14 33  1  0
 16 34  1  0
 19 35  1  0
 19 36  1  0
 20 37  1  0
 20 38  1  0
 24 39  1  0
M  END
$$$$
confid_6
     RDKit          3D

 39 42  0  0  0  0  0  0  0  0999 V2000
   24.5500   26.3900   36.2500 N   0  0  0  0  0  0  0  0  0  0  0  0
   25.6000   26.1300   35.4000 C   0  0  0  0  0  0  0  0  0  0  0  0
   25.4300   25.4300   34.4200 O   0  0  0  0  0  0  0  0  0  0  0  0
   26.9800   26.6300   35.7100 C   0  0  0  0  0  0  0  0  0  0  0  0
   27.3200   26.8200   36.9800 N   0  0  0  0  0  0  0  0  0  0  0  0
   28.4700   27.4000   37.3100 N   0  0  0  0  0  0  0  0  0  0  0  0
   29.4000   27.6300   36.3700 C   0  0  0  0  0  0  0  0  0  0  0  0
   30.6600   28.0500   36.8000 C   0  0  0  0  0  0  0  0  0  0  0  0
   31.5700   28.3600   35.7800 C   0  0  0  0  0  0  0  0  0  0  0  0
   31.3700   28.1000   34.4300 C   0  0  0  0  0  0  0  0  0  0  0  0
   30.1200   27.5900   34.0500 C   0  0  0  0  0  0  0  0  0  0  0  0
   29.1500   27.3400   35.0300 C   0  0  0  0  0  0  0  0  0  0  0  0
   27.8800   26.8900   34.6600 C   0  0  0  0  0  0  0  0  0  0  0  0
   27.4800   26.6100   33.3700 N   0  0  0  0  0  0  0  0  0  0  0  0
   30.9800   28.3280   38.2170 C   0  0  0  0  0  0  0  0  0  0  0  0
   30.4131   29.4604   38.8343 C   0  0  0  0  0  0  0  0  0  0  0  0
   30.7322   29.7118   40.1620 C   0  0  0  0  0  0  0  0  0  0  0  0
   30.2950   30.7550   40.9475 O   0  0  0  0  0  0  0  0  0  0  0  0
   30.8589   30.6489   42.2573 C   0  0  0  0  0  0  0  0  0  0  0  0
   31.7442   29.3755   42.2400 C   0  0  0  0  0  0  0  0  0  0  0  0
   31.5650   28.8913   40.8504 C   0  0  0  0  0  0  0  0  0  0  0  0
   32.1164   27.7915   40.2804 N   0  0  0  0  0  0  0  0  0  0  0  0
   31.8428   27.4817   38.9763 C   0  0  0  0  0  0  0  0  0  0  0  0
   32.4650   26.2438   38.3921 C   0  0  0  0  0  0  0  0  0  0  0  0
   33.3981   26.5886   37.4326 F   0  0  0  0  0  0  0  0  0  0  0  0
   31.4937   25.4358   37.8289 F   0  0  0  0  0  0  0  0  0  0  0  0
   23.6001   26.0040   36.0503 H   0  0  0  0  0  0  0  0  0  0  0  0
   24.6739   26.9932   37.0933 H   0  0  0  0  0  0  0  0  0  0  0  0
   32.5275   28.7803   36.0628 H   0  0  0  0  0  0  0  0  0  0  0  0
   32.1330   28.3217   33.6949 H   0  0  0  0  0  0  0  0  0  0  0  0
   29.9371   27.4183   32.9982 H   0  0  0  0  0  0  0  0  0  0  0  0
   28.1243   26.1388   32.6978 H   0  0  0  0  0  0  0  0  0  0  0  0
   26.5962   27.0149   32.9873 H   0  0  0  0  0  0  0  0  0  0  0  0
   29.7506   30.1253   38.2940 H   0  0  0  0  0  0  0  0  0  0  0  0
   31.4700   31.5504   42.4763 H   0  0  0  0  0  0  0  0  0  0  0  0
   30.0461   30.5532   43.0086 H   0  0  0  0  0  0  0  0  0  0  0  0
   31.3759   28.6185   42.9650 H   0  0  0  0  0  0  0  0  0  0  0  0
   32.8104   29.6228   42.4301 H   0  0  0  0  0  0  0  0  0  0  0  0
   32.9796   25.6646   39.1880 H   0  0  0  0  0  0  0  0  0  0  0  0
  1  2  1  0
  2  3  2  0
  2  4  1  0
  4  5  2  0
  5  6  1  0
  6  7  2  0
  7  8  1  0
  8  9  2  0
  9 10  1  0
 10 11  2  0
 11 12  1  0
 12 13  2  0
 13 14  1  0
  8 15  1  0
 15 16  2  0
 16 17  1  0
 17 18  1  0
 18 19  1  0
 19 20  1  0
 20 21  1  0
 21 22  1  0
 22 23  2  0
 23 24  1  0
 24 25  1  0
 24 26  1  0
 13  4  1  0
 23 15  1  0
 12  7  1  0
 21 17  2  0
  1 27  1  0
  1 28  1  0
  9 29  1  0
 10 30  1  0
 11 31  1  0
 14 32  1  0
 14 33  1  0
 16 34  1  0
 19 35  1  0
 19 36  1  0
 20 37  1  0
 20 38  1  0
 24 39  1  0
M  END
$$$$
confid_7
     RDKit          3D

 39 42  0  0  0  0  0  0  0  0999 V2000
   24.5500   26.3900   36.2500 N   0  0  0  0  0  0  0  0  0  0  0  0
   25.6000   26.1300   35.4000 C   0  0  0  0  0  0  0  0  0  0  0  0
   25.4300   25.4300   34.4200 O   0  0  0  0  0  0  0  0  0  0  0  0
   26.9800   26.6300   35.7100 C   0  0  0  0  0  0  0  0  0  0  0  0
   27.3200   26.8200   36.9800 N   0  0  0  0  0  0  0  0  0  0  0  0
   28.4700   27.4000   37.3100 N   0  0  0  0  0  0  0  0  0  0  0  0
   29.4000   27.6300   36.3700 C   0  0  0  0  0  0  0  0  0  0  0  0
   30.6600   28.0500   36.8000 C   0  0  0  0  0  0  0  0  0  0  0  0
   31.5700   28.3600   35.7800 C   0  0  0  0  0  0  0  0  0  0  0  0
   31.3700   28.1000   34.4300 C   0  0  0  0  0  0  0  0  0  0  0  0
   30.1200   27.5900   34.0500 C   0  0  0  0  0  0  0  0  0  0  0  0
   29.1500   27.3400   35.0300 C   0  0  0  0  0  0  0  0  0  0  0  0
   27.8800   26.8900   34.6600 C   0  0  0  0  0  0  0  0  0  0  0  0
   27.4800   26.6100   33.3700 N   0  0  0  0  0  0  0  0  0  0  0  0
   30.9869   28.3211   38.2154 C   0  0  0  0  0  0  0  0  0  0  0  0
   31.7739   27.3885   38.9176 C   0  0  0  0  0  0  0  0  0  0  0  0
   32.0577   27.6445   40.2525 C   0  0  0  0  0  0  0  0  0  0  0  0
   32.7947   26.8675   41.1182 O   0  0  0  0  0  0  0  0  0  0  0  0
   32.8439   27.4852   42.4069 C   0  0  0  0  0  0  0  0  0  0  0  0
   32.0275   28.7982   42.2832 C   0  0  0  0  0  0  0  0  0  0  0  0
   31.5946   28.7627   40.8659 C   0  0  0  0  0  0  0  0  0  0  0  0
   30.8445   29.6804   40.2072 N   0  0  0  0  0  0  0  0  0  0  0  0
   30.5375   29.4980   38.8864 C   0  0  0  0  0  0  0  0  0  0  0  0
   29.6917   30.5335   38.1973 C   0  0  0  0  0  0  0  0  0  0  0  0
   28.3562   30.2075   38.3390 F   0  0  0  0  0  0  0  0  0  0  0  0
   29.9138   31.7785   38.7583 F   0  0  0  0  0  0  0  0  0  0  0  0
   23.6001   26.0040   36.0503 H   0  0  0  0  0  0  0  0  0  0  0  0
   24.6739   26.9933   37.0932 H   0  0  0  0  0  0  0  0  0  0  0  0
   32.5304   28.7728   36.0645 H   0  0  0  0  0  0  0  0  0  0  0  0
   32.1336   28.3203   33.6951 H   0  0  0  0  0  0  0  0  0  0  0  0
   29.9372   27.4181   32.9983 H   0  0  0  0  0  0  0  0  0  0  0  0
   26.5962   27.0149   32.9874 H   0  0  0  0  0  0  0  0  0  0  0  0
   28.1243   26.1388   32.6978 H   0  0  0  0  0  0  0  0  0  0  0  0
   32.1421   26.4886   38.4408 H   0  0  0  0  0  0  0  0  0  0  0  0
   33.8992   27.7018   42.6785 H   0  0  0  0  0  0  0  0  0  0  0  0
   32.3912   26.8098   43.1638 H   0  0  0  0  0  0  0  0  0  0  0  0
   32.6646   29.6885   42.4721 H   0  0  0  0  0  0  0  0  0  0  0  0
   31.1454   28.7897   42.9585 H   0  0  0  0  0  0  0  0  0  0  0  0
   29.9391   30.5969   37.1173 H   0  0  0  0  0  0  0  0  0  0  0  0
  1  2  1  0
  2  3  2  0
  2  4  1  0
  4  5  2  0
  5  6  1  0
  6  7  2  0
  7  8  1  0
  8  9  2  0
  9 10  1  0
 10 11  2  0
 11 12  1  0
 12 13  2  0
 13 14  1  0
  8 15  1  0
 15 16  2  0
 16 17  1  0
 17 18  1  0
 18 19  1  0
 19 20  1  0
 20 21  1  0
 21 22  1  0
 22 23  2  0
 23 24  1  0
 24 25  1  0
 24 26  1  0
 13  4  1  0
 23 15  1  0
 12  7  1  0
 21 17  2  0
  1 27  1  0
  1 28  1  0
  9 29  1  0
 10 30  1  0
 11 31  1  0
 14 32  1  0
 14 33  1  0
 16 34  1  0
 19 35  1  0
 19 36  1  0
 20 37  1  0
 20 38  1  0
 24 39  1  0
M  END
$$$$
confid_8
     RDKit          3D

 39 42  0  0  0  0  0  0  0  0999 V2000
   24.5500   26.3900   36.2500 N   0  0  0  0  0  0  0  0  0  0  0  0
   25.6000   26.1300   35.4000 C   0  0  0  0  0  0  0  0  0  0  0  0
   25.4300   25.4300   34.4200 O   0  0  0  0  0  0  0  0  0  0  0  0
   26.9800   26.6300   35.7100 C   0  0  0  0  0  0  0  0  0  0  0  0
   27.3200   26.8200   36.9800 N   0  0  0  0  0  0  0  0  0  0  0  0
   28.4700   27.4000   37.3100 N   0  0  0  0  0  0  0  0  0  0  0  0
   29.4000   27.6300   36.3700 C   0  0  0  0  0  0  0  0  0  0  0  0
   30.6600   28.0500   36.8000 C   0  0  0  0  0  0  0  0  0  0  0  0
   31.5700   28.3600   35.7800 C   0  0  0  0  0  0  0  0  0  0  0  0
   31.3700   28.1000   34.4300 C   0  0  0  0  0  0  0  0  0  0  0  0
   30.1200   27.5900   34.0500 C   0  0  0  0  0  0  0  0  0  0  0  0
   29.1500   27.3400   35.0300 C   0  0  0  0  0  0  0  0  0  0  0  0
   27.8800   26.8900   34.6600 C   0  0  0  0  0  0  0  0  0  0  0  0
   27.4800   26.6100   33.3700 N   0  0  0  0  0  0  0  0  0  0  0  0
   30.9910   28.2840   38.2243 C   0  0  0  0  0  0  0  0  0  0  0  0
   31.0962   27.1731   39.0848 C   0  0  0  0  0  0  0  0  0  0  0  0
   31.4324   27.4003   40.4124 C   0  0  0  0  0  0  0  0  0  0  0  0
   31.5937   26.4645   41.4097 O   0  0  0  0  0  0  0  0  0  0  0  0
   31.9459   27.1127   42.6346 C   0  0  0  0  0  0  0  0  0  0  0  0
   31.9996   28.6296   42.3155 C   0  0  0  0  0  0  0  0  0  0  0  0
   31.6524   28.6564   40.8746 C   0  0  0  0  0  0  0  0  0  0  0  0
   31.5456   29.7424   40.0700 N   0  0  0  0  0  0  0  0  0  0  0  0
   31.2055   29.5934   38.7531 C   0  0  0  0  0  0  0  0  0  0  0  0
   31.0969   30.8271   37.8997 C   0  0  0  0  0  0  0  0  0  0  0  0
   30.6993   31.9048   38.6709 F   0  0  0  0  0  0  0  0  0  0  0  0
   32.3268   31.1074   37.3350 F   0  0  0  0  0  0  0  0  0  0  0  0
   24.6739   26.9932   37.0933 H   0  0  0  0  0  0  0  0  0  0  0  0
   23.6001   26.0040   36.0503 H   0  0  0  0  0  0  0  0  0  0  0  0
   32.5376   28.7548   36.0637 H   0  0  0  0  0  0  0  0  0  0  0  0
   32.1352   28.3162   33.6956 H   0  0  0  0  0  0  0  0  0  0  0  0
   29.9376   27.4171   32.9984 H   0  0  0  0  0  0  0  0  0  0  0  0
   28.1242   26.1387   32.6978 H   0  0  0  0  0  0  0  0  0  0  0  0
   26.5962   27.0149   32.9873 H   0  0  0  0  0  0  0  0  0  0  0  0
   30.9334   26.1642   38.7261 H   0  0  0  0  0  0  0  0  0  0  0  0
   31.1755   26.8997   43.4062 H   0  0  0  0  0  0  0  0  0  0  0  0
   32.9365   26.7478   42.9804 H   0  0  0  0  0  0  0  0  0  0  0  0
   31.2462   29.1929   42.9066 H   0  0  0  0  0  0  0  0  0  0  0  0
   33.0194   29.0398   42.4765 H   0  0  0  0  0  0  0  0  0  0  0  0
   30.3460   30.6899   37.0940 H   0  0  0  0  0  0  0  0  0  0  0  0
  1  2  1  0
  2  3  2  0
  2  4  1  0
  4  5  2  0
  5  6  1  0
  6  7  2  0
  7  8  1  0
  8  9  2  0
  9 10  1  0
 10 11  2  0
 11 12  1  0
 12 13  2  0
 13 14  1  0
  8 15  1  0
 15 16  2  0
 16 17  1  0
 17 18  1  0
 18 19  1  0
 19 20  1  0
 20 21  1  0
 21 22  1  0
 22 23  2  0
 23 24  1  0
 24 25  1  0
 24 26  1  0
 13  4  1  0
 23 15  1  0
 12  7  1  0
 21 17  2  0
  1 27  1  0
  1 28  1  0
  9 29  1  0
 10 30  1  0
 11 31  1  0
 14 32  1  0
 14 33  1  0
 16 34  1  0
 19 35  1  0
 19 36  1  0
 20 37  1  0
 20 38  1  0
 24 39  1  0
M  END
$$$$
confid_9
     RDKit          3D

 39 42  0  0  0  0  0  0  0  0999 V2000
   24.5500   26.3900   36.2500 N   0  0  0  0  0  0  0  0  0  0  0  0
   25.6000   26.1300   35.4000 C   0  0  0  0  0  0  0  0  0  0  0  0
   25.4300   25.4300   34.4200 O   0  0  0  0  0  0  0  0  0  0  0  0
   26.9800   26.6300   35.7100 C   0  0  0  0  0  0  0  0  0  0  0  0
   27.3200   26.8200   36.9800 N   0  0  0  0  0  0  0  0  0  0  0  0
   28.4700   27.4000   37.3100 N   0  0  0  0  0  0  0  0  0  0  0  0
   29.4000   27.6300   36.3700 C   0  0  0  0  0  0  0  0  0  0  0  0
   30.6600   28.0500   36.8000 C   0  0  0  0  0  0  0  0  0  0  0  0
   31.5700   28.3600   35.7800 C   0  0  0  0  0  0  0  0  0  0  0  0
   31.3700   28.1000   34.4300 C   0  0  0  0  0  0  0  0  0  0  0  0
   30.1200   27.5900   34.0500 C   0  0  0  0  0  0  0  0  0  0  0  0
   29.1500   27.3400   35.0300 C   0  0  0  0  0  0  0  0  0  0  0  0
   27.8800   26.8900   34.6600 C   0  0  0  0  0  0  0  0  0  0  0  0
   27.4800   26.6100   33.3700 N   0  0  0  0  0  0  0  0  0  0  0  0
   30.9879   28.3237   38.2191 C   0  0  0  0  0  0  0  0  0  0  0  0
   30.2859   29.3384   38.9014 C   0  0  0  0  0  0  0  0  0  0  0  0
   30.6305   29.6029   40.2199 C   0  0  0  0  0  0  0  0  0  0  0  0
   30.0807   30.5471   41.0581 O   0  0  0  0  0  0  0  0  0  0  0  0
   30.7246   30.5009   42.3340 C   0  0  0  0  0  0  0  0  0  0  0  0
   31.7955   29.3835   42.2322 C   0  0  0  0  0  0  0  0  0  0  0  0
   31.6162   28.9073   40.8398 C   0  0  0  0  0  0  0  0  0  0  0  0
   32.3026   27.9241   40.2075 N   0  0  0  0  0  0  0  0  0  0  0  0
   32.0071   27.6015   38.9111 C   0  0  0  0  0  0  0  0  0  0  0  0
   32.7982   26.5077   38.2479 C   0  0  0  0  0  0  0  0  0  0  0  0
   33.2220   25.5879   39.1906 F   0  0  0  0  0  0  0  0  0  0  0  0
   33.9033   27.0522   37.6216 F   0  0  0  0  0  0  0  0  0  0  0  0
   23.6001   26.0040   36.0503 H   0  0  0  0  0  0  0  0  0  0  0  0
   24.6739   26.9932   37.0933 H   0  0  0  0  0  0  0  0  0  0  0  0
   32.5271   28.7818   36.0613 H   0  0  0  0  0  0  0  0  0  0  0  0
   32.1329   28.3221   33.6949 H   0  0  0  0  0  0  0  0  0  0  0  0
   29.9371   27.4184   32.9982 H   0  0  0  0  0  0  0  0  0  0  0  0
   28.1243   26.1388   32.6978 H   0  0  0  0  0  0  0  0  0  0  0  0
   26.5962   27.0149   32.9873 H   0  0  0  0  0  0  0  0  0  0  0  0
   29.5071   29.9120   38.4143 H   0  0  0  0  0  0  0  0  0  0  0  0
   31.1985   31.4820   42.5504 H   0  0  0  0  0  0  0  0  0  0  0  0
   29.9788   30.2608   43.1216 H   0  0  0  0  0  0  0  0  0  0  0  0
   32.8190   29.7918   42.3736 H   0  0  0  0  0  0  0  0  0  0  0  0
   31.5915   28.5625   42.9523 H   0  0  0  0  0  0  0  0  0  0  0  0
   32.1811   25.9688   37.4990 H   0  0  0  0  0  0  0  0  0  0  0  0
  1  2  1  0
  2  3  2  0
  2  4  1  0
  4  5  2  0
  5  6  1  0
  6  7  2  0
  7  8  1  0
  8  9  2  0
  9 10  1  0
 10 11  2  0
 11 12  1  0
 12 13  2  0
 13 14  1  0
  8 15  1  0
 15 16  2  0
 16 17  1  0
 17 18  1  0
 18 19  1  0
 19 20  1  0
 20 21  1  0
 21 22  1  0
 22 23  2  0
 23 24  1  0
 24 25  1  0
 24 26  1  0
 13  4  1  0
 23 15  1  0
 12  7  1  0
 21 17  2  0
  1 27  1  0
  1 28  1  0
  9 29  1  0
 10 30  1  0
 11 31  1  0
 14 32  1  0
 14 33  1  0
 16 34  1  0
 19 35  1  0
 19 36  1  0
 20 37  1  0
 20 38  1  0
 24 39  1  0
M  END
$$$$
confid_10
     RDKit          3D

 39 42  0  0  0  0  0  0  0  0999 V2000
   24.5500   26.3900   36.2500 N   0  0  0  0  0  0  0  0  0  0  0  0
   25.6000   26.1300   35.4000 C   0  0  0  0  0  0  0  0  0  0  0  0
   25.4300   25.4300   34.4200 O   0  0  0  0  0  0  0  0  0  0  0  0
   26.9800   26.6300   35.7100 C   0  0  0  0  0  0  0  0  0  0  0  0
   27.3200   26.8200   36.9800 N   0  0  0  0  0  0  0  0  0  0  0  0
   28.4700   27.4000   37.3100 N   0  0  0  0  0  0  0  0  0  0  0  0
   29.4000   27.6300   36.3700 C   0  0  0  0  0  0  0  0  0  0  0  0
   30.6600   28.0500   36.8000 C   0  0  0  0  0  0  0  0  0  0  0  0
   31.5700   28.3600   35.7800 C   0  0  0  0  0  0  0  0  0  0  0  0
   31.3700   28.1000   34.4300 C   0  0  0  0  0  0  0  0  0  0  0  0
   30.1200   27.5900   34.0500 C   0  0  0  0  0  0  0  0  0  0  0  0
   29.1500   27.3400   35.0300 C   0  0  0  0  0  0  0  0  0  0  0  0
   27.8800   26.8900   34.6600 C   0  0  0  0  0  0  0  0  0  0  0  0
   27.4800   26.6100   33.3700 N   0  0  0  0  0  0  0  0  0  0  0  0
   30.9925   28.3016   38.2200 C   0  0  0  0  0  0  0  0  0  0  0  0
   31.1546   29.6324   38.6538 C   0  0  0  0  0  0  0  0  0  0  0  0
   31.4424   29.8552   39.9936 C   0  0  0  0  0  0  0  0  0  0  0  0
   31.6281   31.0663   40.6223 O   0  0  0  0  0  0  0  0  0  0  0  0
   31.9007   30.8585   42.0105 C   0  0  0  0  0  0  0  0  0  0  0  0
   31.8711   29.3230   42.2269 C   0  0  0  0  0  0  0  0  0  0  0  0
   31.5702   28.8229   40.8643 C   0  0  0  0  0  0  0  0  0  0  0  0
   31.4338   27.5335   40.4682 N   0  0  0  0  0  0  0  0  0  0  0  0
   31.1609   27.2397   39.1602 C   0  0  0  0  0  0  0  0  0  0  0  0
   31.0207   25.7935   38.7702 C   0  0  0  0  0  0  0  0  0  0  0  0
   31.9159   25.0234   39.4908 F   0  0  0  0  0  0  0  0  0  0  0  0
   29.7360   25.3645   39.0446 F   0  0  0  0  0  0  0  0  0  0  0  0
   24.6740   26.9931   37.0934 H   0  0  0  0  0  0  0  0  0  0  0  0
   23.6001   26.0041   36.0503 H   0  0  0  0  0  0  0  0  0  0  0  0
   32.5331   28.7668   36.0641 H   0  0  0  0  0  0  0  0  0  0  0  0
   32.1342   28.3187   33.6952 H   0  0  0  0  0  0  0  0  0  0  0  0
   29.9374   27.4176   32.9983 H   0  0  0  0  0  0  0  0  0  0  0  0
   28.1243   26.1387   32.6979 H   0  0  0  0  0  0  0  0  0  0  0  0
   26.5962   27.0149   32.9873 H   0  0  0  0  0  0  0  0  0  0  0  0
   31.0450   30.4659   37.9711 H   0  0  0  0  0  0  0  0  0  0  0  0
   32.9005   31.2724   42.2621 H   0  0  0  0  0  0  0  0  0  0  0  0
   31.1209   31.3578   42.6243 H   0  0  0  0  0  0  0  0  0  0  0  0
   32.8579   28.9450   42.5698 H   0  0  0  0  0  0  0  0  0  0  0  0
   31.0655   29.0307   42.9340 H   0  0  0  0  0  0  0  0  0  0  0  0
   31.2328   25.6410   37.6919 H   0  0  0  0  0  0  0  0  0  0  0  0
  1  2  1  0
  2  3  2  0
  2  4  1  0
  4  5  2  0
  5  6  1  0
  6  7  2  0
  7  8  1  0
  8  9  2  0
  9 10  1  0
 10 11  2  0
 11 12  1  0
 12 13  2  0
 13 14  1  0
  8 15  1  0
 15 16  2  0
 16 17  1  0
 17 18  1  0
 18 19  1  0
 19 20  1  0
 20 21  1  0
 21 22  1  0
 22 23  2  0
 23 24  1  0
 24 25  1  0
 24 26  1  0
 13  4  1  0
 23 15  1  0
 12  7  1  0
 21 17  2  0
  1 27  1  0
  1 28  1  0
  9 29  1  0
 10 30  1  0
 11 31  1  0
 14 32  1  0
 14 33  1  0
 16 34  1  0
 19 35  1  0
 19 36  1  0
 20 37  1  0
 20 38  1  0
 24 39  1  0
M  END
$$$$
