confid_0
     RDKit          3D

 49 53  0  0  0  0  0  0  0  0999 V2000
   24.6900   26.1200   35.5300 N   0  0  0  0  0  0  0  0  0  0  0  0
   25.6600   25.6700   34.6600 C   0  0  0  0  0  0  0  0  0  0  0  0
   25.2400   25.0100   33.7200 O   0  0  0  0  0  0  0  0  0  0  0  0
   27.0300   26.2200   34.8800 C   0  0  0  0  0  0  0  0  0  0  0  0
   27.3500   26.7300   36.0700 N   0  0  0  0  0  0  0  0  0  0  0  0
   28.5700   27.1800   36.3300 N   0  0  0  0  0  0  0  0  0  0  0  0
   29.5300   27.1100   35.3900 C   0  0  0  0  0  0  0  0  0  0  0  0
   30.8300   27.5700   35.6500 C   0  0  0  0  0  0  0  0  0  0  0  0
   31.8500   27.5400   34.6900 C   0  0  0  0  0  0  0  0  0  0  0  0
   31.5100   27.1200   33.4000 C   0  0  0  0  0  0  0  0  0  0  0  0
   30.2200   26.6300   33.1100 C   0  0  0  0  0  0  0  0  0  0  0  0
   29.2400   26.6600   34.1000 C   0  0  0  0  0  0  0  0  0  0  0  0
   27.9300   26.2600   33.8100 C   0  0  0  0  0  0  0  0  0  0  0  0
   27.5200   25.7100   32.6100 N   0  0  0  0  0  0  0  0  0  0  0  0
   31.1399   28.0870   36.9551 N   0  0  0  0  0  0  0  0  0  0  0  0
   30.6051   29.3466   37.4774 C   0  0  0  0  0  0  0  0  0  0  0  0
   31.4759   29.7065   38.7058 C   0  0  0  0  0  0  0  0  0  0  0  0
   32.4701   28.5988   38.7624 C   0  0  0  0  0  0  0  0  0  0  0  0
   33.5047   28.4166   39.6822 C   0  0  0  0  0  0  0  0  0  0  0  0
   33.7073   29.3382   40.6560 F   0  0  0  0  0  0  0  0  0  0  0  0
   34.3384   27.2810   39.5553 C   0  0  0  0  0  0  0  0  0  0  0  0
   34.0886   26.3560   38.5123 C   0  0  0  0  0  0  0  0  0  0  0  0
   33.0394   26.5651   37.6048 C   0  0  0  0  0  0  0  0  0  0  0  0
   32.2510   27.7078   37.7510 C   0  0  0  0  0  0  0  0  0  0  0  0
   35.4088   27.0463   40.4909 N   0  0  0  0  0  0  0  0  0  0  0  0
   36.6622   26.4586   40.1858 C   0  0  0  0  0  0  0  0  0  0  0  0
   37.0722   26.2731   39.0090 O   0  0  0  0  0  0  0  0  0  0  0  0
   37.4649   26.1502   41.3852 C   0  0  0  0  0  0  0  0  0  0  0  0
   36.5120   26.4872   42.5401 C   0  0  0  0  0  0  0  0  0  0  0  0
   35.3067   27.2278   41.9308 C   0  0  0  0  0  0  0  0  0  0  0  0
   24.8908   26.7905   36.3051 H   0  0  0  0  0  0  0  0  0  0  0  0
   23.6981   25.8078   35.4227 H   0  0  0  0  0  0  0  0  0  0  0  0
   32.8479   27.8984   34.9092 H   0  0  0  0  0  0  0  0  0  0  0  0
   32.2632   27.1288   32.6228 H   0  0  0  0  0  0  0  0  0  0  0  0
   30.0099   26.3039   32.1002 H   0  0  0  0  0  0  0  0  0  0  0  0
   28.1317   25.0436   32.0892 H   0  0  0  0  0  0  0  0  0  0  0  0
   26.6941   26.1028   32.1054 H   0  0  0  0  0  0  0  0  0  0  0  0
   29.5437   29.2184   37.7779 H   0  0  0  0  0  0  0  0  0  0  0  0
   30.6825   30.1414   36.7039 H   0  0  0  0  0  0  0  0  0  0  0  0
   30.8666   29.7242   39.6348 H   0  0  0  0  0  0  0  0  0  0  0  0
   31.9909   30.6802   38.5589 H   0  0  0  0  0  0  0  0  0  0  0  0
   34.6879   25.4602   38.4174 H   0  0  0  0  0  0  0  0  0  0  0  0
   32.8432   25.8468   36.8198 H   0  0  0  0  0  0  0  0  0  0  0  0
   38.3655   26.8003   41.4134 H   0  0  0  0  0  0  0  0  0  0  0  0
   37.7557   25.0779   41.3996 H   0  0  0  0  0  0  0  0  0  0  0  0
   36.1659   25.5474   43.0239 H   0  0  0  0  0  0  0  0  0  0  0  0
   37.0205   27.1160   43.3031 H   0  0  0  0  0  0  0  0  0  0  0  0
   34.3505   26.8055   42.3093 H   0  0  0  0  0  0  0  0  0  0  0  0
   35.3699   28.3083   42.1796 H   0  0  0  0  0  0  0  0  0  0  0  0
  1  2  1  0
  2  3  2  0
  2  4  1  0
  4  5  2  0
  5  6  1  0
  6  7  2  0
  7  8  1  0
  8  9  2  0
  9 10  1  0
 10 11  2  0
 11 12  1  0
 12 13  2  0
 13 14  1  0
  8 15  1  0
 15 16  1  0
 16 17  1  0
 17 18  1  0
 18 19  2  0
 19 20  1  0
 19 21  1  0
 21 22  2  0
 22 23  1  0
 23 24  2  0
 21 25  1  0
 25 26  1  0
 26 27  2  0
 26 28  1  0
 28 29  1  0
 29 30  1  0
 13  4  1  0
 24 15  1  0
 30 25  1  0
 12  7  1  0
 24 18  1  0
  1 31  1  0
  1 32  1  0
  9 33  1  0
 10 34  1  0
 11 35  1  0
 14 36  1  0
 14 37  1  0
 16 38  1  0
 16 39  1  0
 17 40  1  0
 17 41  1  0
 22 42  1  0
 23 43  1  0
 28 44  1  0
 28 45  1  0
 29 46  1  0
 29 47  1  0
 30 48  1  0
 30 49  1  0
M  END
$$$$
confid_1
     RDKit          3D

 49 53  0  0  0  0  0  0  0  0999 V2000
   24.6900   26.1200   35.5300 N   0  0  0  0  0  0  0  0  0  0  0  0
   25.6600   25.6700   34.6600 C   0  0  0  0  0  0  0  0  0  0  0  0
   25.2400   25.0100   33.7200 O   0  0  0  0  0  0  0  0  0  0  0  0
   27.0300   26.2200   34.8800 C   0  0  0  0  0  0  0  0  0  0  0  0
   27.3500   26.7300   36.0700 N   0  0  0  0  0  0  0  0  0  0  0  0
   28.5700   27.1800   36.3300 N   0  0  0  0  0  0  0  0  0  0  0  0
   29.5300   27.1100   35.3900 C   0  0  0  0  0  0  0  0  0  0  0  0
   30.8300   27.5700   35.6500 C   0  0  0  0  0  0  0  0  0  0  0  0
   31.8500   27.5400   34.6900 C   0  0  0  0  0  0  0  0  0  0  0  0
   31.5100   27.1200   33.4000 C   0  0  0  0  0  0  0  0  0  0  0  0
   30.2200   26.6300   33.1100 C   0  0  0  0  0  0  0  0  0  0  0  0
   29.2400   26.6600   34.1000 C   0  0  0  0  0  0  0  0  0  0  0  0
   27.9300   26.2600   33.8100 C   0  0  0  0  0  0  0  0  0  0  0  0
   27.5200   25.7100   32.6100 N   0  0  0  0  0  0  0  0  0  0  0  0
   31.1398   28.0870   36.9550 N   0  0  0  0  0  0  0  0  0  0  0  0
   30.6062   29.3474   37.4768 C   0  0  0  0  0  0  0  0  0  0  0  0
   31.4753   29.7053   38.7070 C   0  0  0  0  0  0  0  0  0  0  0  0
   32.4709   28.5987   38.7617 C   0  0  0  0  0  0  0  0  0  0  0  0
   33.5037   28.4146   39.6832 C   0  0  0  0  0  0  0  0  0  0  0  0
   33.6772   29.3111   40.6857 F   0  0  0  0  0  0  0  0  0  0  0  0
   34.3266   27.2704   39.5661 C   0  0  0  0  0  0  0  0  0  0  0  0
   34.0828   26.3504   38.5172 C   0  0  0  0  0  0  0  0  0  0  0  0
   33.0360   26.5619   37.6074 C   0  0  0  0  0  0  0  0  0  0  0  0
   32.2496   27.7062   37.7522 C   0  0  0  0  0  0  0  0  0  0  0  0
   35.4141   27.0501   40.4852 N   0  0  0  0  0  0  0  0  0  0  0  0
   35.8501   25.7905   40.9673 C   0  0  0  0  0  0  0  0  0  0  0  0
   35.1923   24.7263   40.8182 O   0  0  0  0  0  0  0  0  0  0  0  0
   37.1173   25.8652   41.7199 C   0  0  0  0  0  0  0  0  0  0  0  0
   37.5372   27.3320   41.5539 C   0  0  0  0  0  0  0  0  0  0  0  0
   36.3403   28.0781   40.9347 C   0  0  0  0  0  0  0  0  0  0  0  0
   24.8908   26.7906   36.3049 H   0  0  0  0  0  0  0  0  0  0  0  0
   23.6981   25.8078   35.4227 H   0  0  0  0  0  0  0  0  0  0  0  0
   32.8479   27.8984   34.9093 H   0  0  0  0  0  0  0  0  0  0  0  0
   32.2633   27.1288   32.6228 H   0  0  0  0  0  0  0  0  0  0  0  0
   30.0099   26.3039   32.1002 H   0  0  0  0  0  0  0  0  0  0  0  0
   28.1317   25.0436   32.0892 H   0  0  0  0  0  0  0  0  0  0  0  0
   26.6941   26.1028   32.1054 H   0  0  0  0  0  0  0  0  0  0  0  0
   29.5440   29.2211   37.7749 H   0  0  0  0  0  0  0  0  0  0  0  0
   30.6869   30.1422   36.7036 H   0  0  0  0  0  0  0  0  0  0  0  0
   31.9890   30.6801   38.5634 H   0  0  0  0  0  0  0  0  0  0  0  0
   30.8649   29.7194   39.6353 H   0  0  0  0  0  0  0  0  0  0  0  0
   34.7136   25.4806   38.3915 H   0  0  0  0  0  0  0  0  0  0  0  0
   32.8478   25.8502   36.8144 H   0  0  0  0  0  0  0  0  0  0  0  0
   36.9352   25.6249   42.7894 H   0  0  0  0  0  0  0  0  0  0  0  0
   37.8737   25.1756   41.2874 H   0  0  0  0  0  0  0  0  0  0  0  0
   38.4103   27.3943   40.8678 H   0  0  0  0  0  0  0  0  0  0  0  0
   37.8191   27.7768   42.5330 H   0  0  0  0  0  0  0  0  0  0  0  0
   36.6668   28.7083   40.0791 H   0  0  0  0  0  0  0  0  0  0  0  0
   35.8552   28.7099   41.7085 H   0  0  0  0  0  0  0  0  0  0  0  0
  1  2  1  0
  2  3  2  0
  2  4  1  0
  4  5  2  0
  5  6  1  0
  6  7  2  0
  7  8  1  0
  8  9  2  0
  9 10  1  0
 10 11  2  0
 11 12  1  0
 12 13  2  0
 13 14  1  0
  8 15  1  0
 15 16  1  0
 16 17  1  0
 17 18  1  0
 18 19  2  0
 19 20  1  0
 19 21  1  0
 21 22  2  0
 22 23  1  0
 23 24  2  0
 21 25  1  0
 25 26  1  0
 26 27  2  0
 26 28  1  0
 28 29  1  0
 29 30  1  0
 13  4  1  0
 24 15  1  0
 30 25  1  0
 12  7  1  0
 24 18  1  0
  1 31  1  0
  1 32  1  0
  9 33  1  0
 10 34  1  0
 11 35  1  0
 14 36  1  0
 14 37  1  0
 16 38  1  0
 16 39  1  0
 17 40  1  0
 17 41  1  0
 22 42  1  0
 23 43  1  0
 28 44  1  0
 28 45  1  0
 29 46  1  0
 29 47  1  0
 30 48  1  0
 30 49  1  0
M  END
$$$$
confid_2
     RDKit          3D

 49 53  0  0  0  0  0  0  0  0999 V2000
   24.6900   26.1200   35.5300 N   0  0  0  0  0  0  0  0  0  0  0  0
   25.6600   25.6700   34.6600 C   0  0  0  0  0  0  0  0  0  0  0  0
   25.2400   25.0100   33.7200 O   0  0  0  0  0  0  0  0  0  0  0  0
   27.0300   26.2200   34.8800 C   0  0  0  0  0  0  0  0  0  0  0  0
   27.3500   26.7300   36.0700 N   0  0  0  0  0  0  0  0  0  0  0  0
   28.5700   27.1800   36.3300 N   0  0  0  0  0  0  0  0  0  0  0  0
   29.5300   27.1100   35.3900 C   0  0  0  0  0  0  0  0  0  0  0  0
   30.8300   27.5700   35.6500 C   0  0  0  0  0  0  0  0  0  0  0  0
   31.8500   27.5400   34.6900 C   0  0  0  0  0  0  0  0  0  0  0  0
   31.5100   27.1200   33.4000 C   0  0  0  0  0  0  0  0  0  0  0  0
   30.2200   26.6300   33.1100 C   0  0  0  0  0  0  0  0  0  0  0  0
   29.2400   26.6600   34.1000 C   0  0  0  0  0  0  0  0  0  0  0  0
   27.9300   26.2600   33.8100 C   0  0  0  0  0  0  0  0  0  0  0  0
   27.5200   25.7100   32.6100 N   0  0  0  0  0  0  0  0  0  0  0  0
   31.1402   28.0868   36.9551 N   0  0  0  0  0  0  0  0  0  0  0  0
   30.6016   29.3437   37.4804 C   0  0  0  0  0  0  0  0  0  0  0  0
   31.4696   29.7020   38.7114 C   0  0  0  0  0  0  0  0  0  0  0  0
   32.4735   28.6028   38.7591 C   0  0  0  0  0  0  0  0  0  0  0  0
   33.5037   28.4169   39.6830 C   0  0  0  0  0  0  0  0  0  0  0  0
   33.6579   29.2922   40.7080 F   0  0  0  0  0  0  0  0  0  0  0  0
   34.3347   27.2802   39.5566 C   0  0  0  0  0  0  0  0  0  0  0  0
   34.0816   26.3501   38.5207 C   0  0  0  0  0  0  0  0  0  0  0  0
   33.0364   26.5623   37.6090 C   0  0  0  0  0  0  0  0  0  0  0  0
   32.2545   27.7109   37.7482 C   0  0  0  0  0  0  0  0  0  0  0  0
   35.4054   27.0460   40.4887 N   0  0  0  0  0  0  0  0  0  0  0  0
   36.3424   28.0087   40.9383 C   0  0  0  0  0  0  0  0  0  0  0  0
   36.3887   29.1887   40.4994 O   0  0  0  0  0  0  0  0  0  0  0  0
   37.3091   27.4623   41.9108 C   0  0  0  0  0  0  0  0  0  0  0  0
   36.8188   26.0225   42.1229 C   0  0  0  0  0  0  0  0  0  0  0  0
   35.7371   25.7512   41.0603 C   0  0  0  0  0  0  0  0  0  0  0  0
   24.8908   26.7906   36.3050 H   0  0  0  0  0  0  0  0  0  0  0  0
   23.6981   25.8078   35.4227 H   0  0  0  0  0  0  0  0  0  0  0  0
   32.8480   27.8983   34.9092 H   0  0  0  0  0  0  0  0  0  0  0  0
   32.2633   27.1287   32.6228 H   0  0  0  0  0  0  0  0  0  0  0  0
   30.0099   26.3039   32.1002 H   0  0  0  0  0  0  0  0  0  0  0  0
   26.6941   26.1028   32.1054 H   0  0  0  0  0  0  0  0  0  0  0  0
   28.1317   25.0436   32.0892 H   0  0  0  0  0  0  0  0  0  0  0  0
   29.5400   29.2127   37.7786 H   0  0  0  0  0  0  0  0  0  0  0  0
   30.6790   30.1408   36.7093 H   0  0  0  0  0  0  0  0  0  0  0  0
   31.9755   30.6815   38.5726 H   0  0  0  0  0  0  0  0  0  0  0  0
   30.8601   29.7064   39.6405 H   0  0  0  0  0  0  0  0  0  0  0  0
   34.6982   25.4680   38.4128 H   0  0  0  0  0  0  0  0  0  0  0  0
   32.8415   25.8447   36.8229 H   0  0  0  0  0  0  0  0  0  0  0  0
   38.3304   27.4713   41.4734 H   0  0  0  0  0  0  0  0  0  0  0  0
   37.2843   28.0426   42.8581 H   0  0  0  0  0  0  0  0  0  0  0  0
   36.3763   25.9250   43.1386 H   0  0  0  0  0  0  0  0  0  0  0  0
   37.6582   25.2999   42.0274 H   0  0  0  0  0  0  0  0  0  0  0  0
   34.8362   25.2891   41.5188 H   0  0  0  0  0  0  0  0  0  0  0  0
   36.1445   25.0839   40.2708 H   0  0  0  0  0  0  0  0  0  0  0  0
  1  2  1  0
  2  3  2  0
  2  4  1  0
  4  5  2  0
  5  6  1  0
  6  7  2  0
  7  8  1  0
  8  9  2  0
  9 10  1  0
 10 11  2  0
 11 12  1  0
 12 13  2  0
 13 14  1  0
  8 15  1  0
 15 16  1  0
 16 17  1  0
 17 18  1  0
 18 19  2  0
 19 20  1  0
 19 21  1  0
 21 22  2  0
 22 23  1  0
 23 24  2  0
 21 25  1  0
 25 26  1  0
 26 27  2  0
 26 28  1  0
 28 29  1  0
 29 30  1  0
 13  4  1  0
 24 15  1  0
 30 25  1  0
 12  7  1  0
 24 18  1  0
  1 31  1  0
  1 32  1  0
  9 33  1  0
 10 34  1  0
 11 35  1  0
 14 36  1  0
 14 37  1  0
 16 38  1  0
 16 39  1  0
 17 40  1  0
 17 41  1  0
 22 42  1  0
 23 43  1  0
 28 44  1  0
 28 45  1  0
 29 46  1  0
 29 47  1  0
 30 48  1  0
 30 49  1  0
M  END
$$$$
confid_3
     RDKit          3D

 49 53  0  0  0  0  0  0  0  0999 V2000
   24.6900   26.1200   35.5300 N   0  0  0  0  0  0  0  0  0  0  0  0
   25.6600   25.6700   34.6600 C   0  0  0  0  0  0  0  0  0  0  0  0
   25.2400   25.0100   33.7200 O   0  0  0  0  0  0  0  0  0  0  0  0
   27.0300   26.2200   34.8800 C   0  0  0  0  0  0  0  0  0  0  0  0
   27.3500   26.7300   36.0700 N   0  0  0  0  0  0  0  0  0  0  0  0
   28.5700   27.1800   36.3300 N   0  0  0  0  0  0  0  0  0  0  0  0
   29.5300   27.1100   35.3900 C   0  0  0  0  0  0  0  0  0  0  0  0
   30.8300   27.5700   35.6500 C   0  0  0  0  0  0  0  0  0  0  0  0
   31.8500   27.5400   34.6900 C   0  0  0  0  0  0  0  0  0  0  0  0
   31.5100   27.1200   33.4000 C   0  0  0  0  0  0  0  0  0  0  0  0
   30.2200   26.6300   33.1100 C   0  0  0  0  0  0  0  0  0  0  0  0
   29.2400   26.6600   34.1000 C   0  0  0  0  0  0  0  0  0  0  0  0
   27.9300   26.2600   33.8100 C   0  0  0  0  0  0  0  0  0  0  0  0
   27.5200   25.7100   32.6100 N   0  0  0  0  0  0  0  0  0  0  0  0
   31.1397   28.0864   36.9552 N   0  0  0  0  0  0  0  0  0  0  0  0
   30.6101   29.3492   37.4752 C   0  0  0  0  0  0  0  0  0  0  0  0
   31.4810   29.7068   38.7043 C   0  0  0  0  0  0  0  0  0  0  0  0
   32.4660   28.5914   38.7673 C   0  0  0  0  0  0  0  0  0  0  0  0
   33.5023   28.4082   39.6849 C   0  0  0  0  0  0  0  0  0  0  0  0
   33.7314   29.3434   40.6406 F   0  0  0  0  0  0  0  0  0  0  0  0
   34.3249   27.2649   39.5637 C   0  0  0  0  0  0  0  0  0  0  0  0
   34.0887   26.3512   38.5094 C   0  0  0  0  0  0  0  0  0  0  0  0
   33.0386   26.5614   37.6029 C   0  0  0  0  0  0  0  0  0  0  0  0
   32.2455   27.7007   37.7556 C   0  0  0  0  0  0  0  0  0  0  0  0
   35.4087   27.0388   40.4825 N   0  0  0  0  0  0  0  0  0  0  0  0
   35.3451   27.1666   41.8919 C   0  0  0  0  0  0  0  0  0  0  0  0
   34.2824   27.4250   42.5173 O   0  0  0  0  0  0  0  0  0  0  0  0
   36.6331   26.8840   42.5552 C   0  0  0  0  0  0  0  0  0  0  0  0
   37.5906   26.6476   41.3779 C   0  0  0  0  0  0  0  0  0  0  0  0
   36.7298   26.5658   40.1031 C   0  0  0  0  0  0  0  0  0  0  0  0
   23.6982   25.8076   35.4228 H   0  0  0  0  0  0  0  0  0  0  0  0
   24.8907   26.7908   36.3048 H   0  0  0  0  0  0  0  0  0  0  0  0
   32.8479   27.8983   34.9094 H   0  0  0  0  0  0  0  0  0  0  0  0
   32.2633   27.1287   32.6228 H   0  0  0  0  0  0  0  0  0  0  0  0
   30.0099   26.3039   32.1002 H   0  0  0  0  0  0  0  0  0  0  0  0
   28.1317   25.0436   32.0892 H   0  0  0  0  0  0  0  0  0  0  0  0
   26.6941   26.1028   32.1054 H   0  0  0  0  0  0  0  0  0  0  0  0
   30.6921   30.1427   36.7007 H   0  0  0  0  0  0  0  0  0  0  0  0
   29.5477   29.2259   37.7743 H   0  0  0  0  0  0  0  0  0  0  0  0
   32.0042   30.6756   38.5544 H   0  0  0  0  0  0  0  0  0  0  0  0
   30.8700   29.7332   39.6320 H   0  0  0  0  0  0  0  0  0  0  0  0
   34.7046   25.4687   38.4004 H   0  0  0  0  0  0  0  0  0  0  0  0
   32.8497   25.8502   36.8097 H   0  0  0  0  0  0  0  0  0  0  0  0
   36.9556   27.7499   43.1723 H   0  0  0  0  0  0  0  0  0  0  0  0
   36.5430   25.9701   43.1807 H   0  0  0  0  0  0  0  0  0  0  0  0
   38.1736   25.7121   41.5231 H   0  0  0  0  0  0  0  0  0  0  0  0
   38.2986   27.5014   41.2956 H   0  0  0  0  0  0  0  0  0  0  0  0
   37.1517   27.2038   39.2967 H   0  0  0  0  0  0  0  0  0  0  0  0
   36.6679   25.5114   39.7579 H   0  0  0  0  0  0  0  0  0  0  0  0
  1  2  1  0
  2  3  2  0
  2  4  1  0
  4  5  2  0
  5  6  1  0
  6  7  2  0
  7  8  1  0
  8  9  2  0
  9 10  1  0
 10 11  2  0
 11 12  1  0
 12 13  2  0
 13 14  1  0
  8 15  1  0
 15 16  1  0
 16 17  1  0
 17 18  1  0
 18 19  2  0
 19 20  1  0
 19 21  1  0
 21 22  2  0
 22 23  1  0
 23 24  2  0
 21 25  1  0
 25 26  1  0
 26 27  2  0
 26 28  1  0
 28 29  1  0
 29 30  1  0
 13  4  1  0
 24 15  1  0
 30 25  1  0
 12  7  1  0
 24 18  1  0
  1 31  1  0
  1 32  1  0
  9 33  1  0
 10 34  1  0
 11 35  1  0
 14 36  1  0
 14 37  1  0
 16 38  1  0
 16 39  1  0
 17 40  1  0
 17 41  1  0
 22 42  1  0
 23 43  1  0
 28 44  1  0
 28 45  1  0
 29 46  1  0
 29 47  1  0
 30 48  1  0
 30 49  1  0
M  END
$$$$
confid_4
     RDKit          3D

 49 53  0  0  0  0  0  0  0  0999 V2000
   24.6900   26.1200   35.5300 N   0  0  0  0  0  0  0  0  0  0  0  0
   25.6600   25.6700   34.6600 C   0  0  0  0  0  0  0  0  0  0  0  0
   25.2400   25.0100   33.7200 O   0  0  0  0  0  0  0  0  0  0  0  0
   27.0300   26.2200   34.8800 C   0  0  0  0  0  0  0  0  0  0  0  0
   27.3500   26.7300   36.0700 N   0  0  0  0  0  0  0  0  0  0  0  0
   28.5700   27.1800   36.3300 N   0  0  0  0  0  0  0  0  0  0  0  0
   29.5300   27.1100   35.3900 C   0  0  0  0  0  0  0  0  0  0  0  0
   30.8300   27.5700   35.6500 C   0  0  0  0  0  0  0  0  0  0  0  0
   31.8500   27.5400   34.6900 C   0  0  0  0  0  0  0  0  0  0  0  0
   31.5100   27.1200   33.4000 C   0  0  0  0  0  0  0  0  0  0  0  0
   30.2200   26.6300   33.1100 C   0  0  0  0  0  0  0  0  0  0  0  0
   29.2400   26.6600   34.1000 C   0  0  0  0  0  0  0  0  0  0  0  0
   27.9300   26.2600   33.8100 C   0  0  0  0  0  0  0  0  0  0  0  0
   27.5200   25.7100   32.6100 N   0  0  0  0  0  0  0  0  0  0  0  0
   31.1527   28.0426   36.9689 N   0  0  0  0  0  0  0  0  0  0  0  0
   31.1826   27.1843   38.1556 C   0  0  0  0  0  0  0  0  0  0  0  0
   31.9380   27.9836   39.2453 C   0  0  0  0  0  0  0  0  0  0  0  0
   32.2901   29.2577   38.5588 C   0  0  0  0  0  0  0  0  0  0  0  0
   32.9880   30.3505   39.0766 C   0  0  0  0  0  0  0  0  0  0  0  0
   33.4773   30.3020   40.3410 F   0  0  0  0  0  0  0  0  0  0  0  0
   33.2105   31.4720   38.2453 C   0  0  0  0  0  0  0  0  0  0  0  0
   32.7385   31.4493   36.9116 C   0  0  0  0  0  0  0  0  0  0  0  0
   32.0392   30.3369   36.4195 C   0  0  0  0  0  0  0  0  0  0  0  0
   31.8366   29.2482   37.2705 C   0  0  0  0  0  0  0  0  0  0  0  0
   33.9306   32.6176   38.7343 N   0  0  0  0  0  0  0  0  0  0  0  0
   33.7311   33.2545   39.9838 C   0  0  0  0  0  0  0  0  0  0  0  0
   32.8236   32.9245   40.7931 O   0  0  0  0  0  0  0  0  0  0  0  0
   34.6414   34.3960   40.2010 C   0  0  0  0  0  0  0  0  0  0  0  0
   35.5455   34.3659   38.9598 C   0  0  0  0  0  0  0  0  0  0  0  0
   34.9331   33.3494   37.9777 C   0  0  0  0  0  0  0  0  0  0  0  0
   24.8908   26.7905   36.3050 H   0  0  0  0  0  0  0  0  0  0  0  0
   23.6981   25.8078   35.4227 H   0  0  0  0  0  0  0  0  0  0  0  0
   32.8549   27.8737   34.9163 H   0  0  0  0  0  0  0  0  0  0  0  0
   32.2648   27.1233   32.6243 H   0  0  0  0  0  0  0  0  0  0  0  0
   30.0103   26.3027   32.1006 H   0  0  0  0  0  0  0  0  0  0  0  0
   28.1316   25.0434   32.0893 H   0  0  0  0  0  0  0  0  0  0  0  0
   26.6941   26.1028   32.1054 H   0  0  0  0  0  0  0  0  0  0  0  0
   31.7219   26.2393   37.9271 H   0  0  0  0  0  0  0  0  0  0  0  0
   30.1487   26.9543   38.4895 H   0  0  0  0  0  0  0  0  0  0  0  0
   31.2816   28.1859   40.1187 H   0  0  0  0  0  0  0  0  0  0  0  0
   32.8589   27.4504   39.5651 H   0  0  0  0  0  0  0  0  0  0  0  0
   32.8955   32.2983   36.2600 H   0  0  0  0  0  0  0  0  0  0  0  0
   31.6632   30.3319   35.4050 H   0  0  0  0  0  0  0  0  0  0  0  0
   35.2289   34.2582   41.1339 H   0  0  0  0  0  0  0  0  0  0  0  0
   34.0584   35.3410   40.2421 H   0  0  0  0  0  0  0  0  0  0  0  0
   35.6143   35.3736   38.4953 H   0  0  0  0  0  0  0  0  0  0  0  0
   36.5668   34.0351   39.2503 H   0  0  0  0  0  0  0  0  0  0  0  0
   35.7087   32.6537   37.5905 H   0  0  0  0  0  0  0  0  0  0  0  0
   34.4505   33.8860   37.1329 H   0  0  0  0  0  0  0  0  0  0  0  0
  1  2  1  0
  2  3  2  0
  2  4  1  0
  4  5  2  0
  5  6  1  0
  6  7  2  0
  7  8  1  0
  8  9  2  0
  9 10  1  0
 10 11  2  0
 11 12  1  0
 12 13  2  0
 13 14  1  0
  8 15  1  0
 15 16  1  0
 16 17  1  0
 17 18  1  0
 18 19  2  0
 19 20  1  0
 19 21  1  0
 21 22  2  0
 22 23  1  0
 23 24  2  0
 21 25  1  0
 25 26  1  0
 26 27  2  0
 26 28  1  0
 28 29  1  0
 29 30  1  0
 13  4  1  0
 24 15  1  0
 30 25  1  0
 12  7  1  0
 24 18  1  0
  1 31  1  0
  1 32  1  0
  9 33  1  0
 10 34  1  0
 11 35  1  0
 14 36  1  0
 14 37  1  0
 16 38  1  0
 16 39  1  0
 17 40  1  0
 17 41  1  0
 22 42  1  0
 23 43  1  0
 28 44  1  0
 28 45  1  0
 29 46  1  0
 29 47  1  0
 30 48  1  0
 30 49  1  0
M  END
$$$$
confid_5
     RDKit          3D

 49 53  0  0  0  0  0  0  0  0999 V2000
   24.6900   26.1200   35.5300 N   0  0  0  0  0  0  0  0  0  0  0  0
   25.6600   25.6700   34.6600 C   0  0  0  0  0  0  0  0  0  0  0  0
   25.2400   25.0100   33.7200 O   0  0  0  0  0  0  0  0  0  0  0  0
   27.0300   26.2200   34.8800 C   0  0  0  0  0  0  0  0  0  0  0  0
   27.3500   26.7300   36.0700 N   0  0  0  0  0  0  0  0  0  0  0  0
   28.5700   27.1800   36.3300 N   0  0  0  0  0  0  0  0  0  0  0  0
   29.5300   27.1100   35.3900 C   0  0  0  0  0  0  0  0  0  0  0  0
   30.8300   27.5700   35.6500 C   0  0  0  0  0  0  0  0  0  0  0  0
   31.8500   27.5400   34.6900 C   0  0  0  0  0  0  0  0  0  0  0  0
   31.5100   27.1200   33.4000 C   0  0  0  0  0  0  0  0  0  0  0  0
   30.2200   26.6300   33.1100 C   0  0  0  0  0  0  0  0  0  0  0  0
   29.2400   26.6600   34.1000 C   0  0  0  0  0  0  0  0  0  0  0  0
   27.9300   26.2600   33.8100 C   0  0  0  0  0  0  0  0  0  0  0  0
   27.5200   25.7100   32.6100 N   0  0  0  0  0  0  0  0  0  0  0  0
   31.1528   28.0435   36.9686 N   0  0  0  0  0  0  0  0  0  0  0  0
   31.1789   27.1872   38.1569 C   0  0  0  0  0  0  0  0  0  0  0  0
   31.9305   27.9887   39.2475 C   0  0  0  0  0  0  0  0  0  0  0  0
   32.2959   29.2563   38.5561 C   0  0  0  0  0  0  0  0  0  0  0  0
   32.9873   30.3522   39.0763 C   0  0  0  0  0  0  0  0  0  0  0  0
   33.4027   30.3332   40.3670 F   0  0  0  0  0  0  0  0  0  0  0  0
   33.2075   31.4764   38.2469 C   0  0  0  0  0  0  0  0  0  0  0  0
   32.7261   31.4551   36.9150 C   0  0  0  0  0  0  0  0  0  0  0  0
   32.0331   30.3398   36.4213 C   0  0  0  0  0  0  0  0  0  0  0  0
   31.8412   29.2469   37.2685 C   0  0  0  0  0  0  0  0  0  0  0  0
   33.9307   32.6217   38.7381 N   0  0  0  0  0  0  0  0  0  0  0  0
   33.6720   33.9735   38.3990 C   0  0  0  0  0  0  0  0  0  0  0  0
   32.6315   34.3495   37.7963 O   0  0  0  0  0  0  0  0  0  0  0  0
   34.7115   34.9016   38.8847 C   0  0  0  0  0  0  0  0  0  0  0  0
   35.7706   33.9623   39.4774 C   0  0  0  0  0  0  0  0  0  0  0  0
   35.1470   32.5550   39.5335 C   0  0  0  0  0  0  0  0  0  0  0  0
   23.6981   25.8080   35.4226 H   0  0  0  0  0  0  0  0  0  0  0  0
   24.8908   26.7903   36.3052 H   0  0  0  0  0  0  0  0  0  0  0  0
   32.8548   27.8739   34.9162 H   0  0  0  0  0  0  0  0  0  0  0  0
   32.2648   27.1233   32.6243 H   0  0  0  0  0  0  0  0  0  0  0  0
   30.0103   26.3027   32.1005 H   0  0  0  0  0  0  0  0  0  0  0  0
   26.6941   26.1029   32.1053 H   0  0  0  0  0  0  0  0  0  0  0  0
   28.1317   25.0436   32.0892 H   0  0  0  0  0  0  0  0  0  0  0  0
   31.7196   26.2422   37.9316 H   0  0  0  0  0  0  0  0  0  0  0  0
   30.1442   26.9571   38.4880 H   0  0  0  0  0  0  0  0  0  0  0  0
   32.8454   27.4521   39.5789 H   0  0  0  0  0  0  0  0  0  0  0  0
   31.2679   28.2006   40.1140 H   0  0  0  0  0  0  0  0  0  0  0  0
   32.9031   32.2926   36.2534 H   0  0  0  0  0  0  0  0  0  0  0  0
   31.6580   30.3338   35.4064 H   0  0  0  0  0  0  0  0  0  0  0  0
   35.1259   35.5022   38.0468 H   0  0  0  0  0  0  0  0  0  0  0  0
   34.2880   35.5647   39.6692 H   0  0  0  0  0  0  0  0  0  0  0  0
   36.6661   33.9469   38.8180 H   0  0  0  0  0  0  0  0  0  0  0  0
   36.0783   34.3011   40.4906 H   0  0  0  0  0  0  0  0  0  0  0  0
   34.8960   32.3012   40.5852 H   0  0  0  0  0  0  0  0  0  0  0  0
   35.8441   31.7966   39.1154 H   0  0  0  0  0  0  0  0  0  0  0  0
  1  2  1  0
  2  3  2  0
  2  4  1  0
  4  5  2  0
  5  6  1  0
  6  7  2  0
  7  8  1  0
  8  9  2  0
  9 10  1  0
 10 11  2  0
 11 12  1  0
 12 13  2  0
 13 14  1  0
  8 15  1  0
 15 16  1  0
 16 17  1  0
 17 18  1  0
 18 19  2  0
 19 20  1  0
 19 21  1  0
 21 22  2  0
 22 23  1  0
 23 24  2  0
 21 25  1  0
 25 26  1  0
 26 27  2  0
 26 28  1  0
 28 29  1  0
 29 30  1  0
 13  4  1  0
 24 15  1  0
 30 25  1  0
 12  7  1  0
 24 18  1  0
  1 31  1  0
  1 32  1  0
  9 33  1  0
 10 34  1  0
 11 35  1  0
 14 36  1  0
 14 37  1  0
 16 38  1  0
 16 39  1  0
 17 40  1  0
 17 41  1  0
 22 42  1  0
 23 43  1  0
 28 44  1  0
 28 45  1  0
 29 46  1  0
 29 47  1  0
 30 48  1  0
 30 49  1  0
M  END
$$$$
confid_6
     RDKit          3D

 49 53  0  0  0  0  0  0  0  0999 V2000
   24.6900   26.1200   35.5300 N   0  0  0  0  0  0  0  0  0  0  0  0
   25.6600   25.6700   34.6600 C   0  0  0  0  0  0  0  0  0  0  0  0
   25.2400   25.0100   33.7200 O   0  0  0  0  0  0  0  0  0  0  0  0
   27.0300   26.2200   34.8800 C   0  0  0  0  0  0  0  0  0  0  0  0
   27.3500   26.7300   36.0700 N   0  0  0  0  0  0  0  0  0  0  0  0
   28.5700   27.1800   36.3300 N   0  0  0  0  0  0  0  0  0  0  0  0
   29.5300   27.1100   35.3900 C   0  0  0  0  0  0  0  0  0  0  0  0
   30.8300   27.5700   35.6500 C   0  0  0  0  0  0  0  0  0  0  0  0
   31.8500   27.5400   34.6900 C   0  0  0  0  0  0  0  0  0  0  0  0
   31.5100   27.1200   33.4000 C   0  0  0  0  0  0  0  0  0  0  0  0
   30.2200   26.6300   33.1100 C   0  0  0  0  0  0  0  0  0  0  0  0
   29.2400   26.6600   34.1000 C   0  0  0  0  0  0  0  0  0  0  0  0
   27.9300   26.2600   33.8100 C   0  0  0  0  0  0  0  0  0  0  0  0
   27.5200   25.7100   32.6100 N   0  0  0  0  0  0  0  0  0  0  0  0
   31.1530   28.0437   36.9686 N   0  0  0  0  0  0  0  0  0  0  0  0
   31.1725   27.1896   38.1586 C   0  0  0  0  0  0  0  0  0  0  0  0
   31.9230   27.9907   39.2504 C   0  0  0  0  0  0  0  0  0  0  0  0
   32.2996   29.2534   38.5562 C   0  0  0  0  0  0  0  0  0  0  0  0
   32.9875   30.3508   39.0778 C   0  0  0  0  0  0  0  0  0  0  0  0
   33.3729   30.3502   40.3786 F   0  0  0  0  0  0  0  0  0  0  0  0
   33.2196   31.4682   38.2435 C   0  0  0  0  0  0  0  0  0  0  0  0
   32.7237   31.4569   36.9184 C   0  0  0  0  0  0  0  0  0  0  0  0
   32.0328   30.3407   36.4230 C   0  0  0  0  0  0  0  0  0  0  0  0
   31.8477   29.2438   37.2673 C   0  0  0  0  0  0  0  0  0  0  0  0
   33.9200   32.6227   38.7404 N   0  0  0  0  0  0  0  0  0  0  0  0
   35.1163   32.6072   39.4990 C   0  0  0  0  0  0  0  0  0  0  0  0
   35.7565   31.5546   39.7624 O   0  0  0  0  0  0  0  0  0  0  0  0
   35.5775   33.9577   39.8762 C   0  0  0  0  0  0  0  0  0  0  0  0
   34.4616   34.8708   39.3474 C   0  0  0  0  0  0  0  0  0  0  0  0
   33.5407   34.0001   38.4718 C   0  0  0  0  0  0  0  0  0  0  0  0
   24.8908   26.7905   36.3050 H   0  0  0  0  0  0  0  0  0  0  0  0
   23.6981   25.8078   35.4227 H   0  0  0  0  0  0  0  0  0  0  0  0
   32.8548   27.8740   34.9161 H   0  0  0  0  0  0  0  0  0  0  0  0
   32.2648   27.1234   32.6243 H   0  0  0  0  0  0  0  0  0  0  0  0
   30.0103   26.3027   32.1005 H   0  0  0  0  0  0  0  0  0  0  0  0
   26.6941   26.1028   32.1054 H   0  0  0  0  0  0  0  0  0  0  0  0
   28.1316   25.0434   32.0893 H   0  0  0  0  0  0  0  0  0  0  0  0
   31.7112   26.2426   37.9367 H   0  0  0  0  0  0  0  0  0  0  0  0
   30.1362   26.9630   38.4870 H   0  0  0  0  0  0  0  0  0  0  0  0
   31.2566   28.2099   40.1121 H   0  0  0  0  0  0  0  0  0  0  0  0
   32.8328   27.4500   39.5889 H   0  0  0  0  0  0  0  0  0  0  0  0
   32.8802   32.3060   36.2668 H   0  0  0  0  0  0  0  0  0  0  0  0
   31.6484   30.3394   35.4116 H   0  0  0  0  0  0  0  0  0  0  0  0
   35.6829   34.0433   40.9790 H   0  0  0  0  0  0  0  0  0  0  0  0
   36.5425   34.1811   39.3727 H   0  0  0  0  0  0  0  0  0  0  0  0
   33.8819   35.2842   40.2018 H   0  0  0  0  0  0  0  0  0  0  0  0
   34.8850   35.7147   38.7604 H   0  0  0  0  0  0  0  0  0  0  0  0
   33.7095   34.2352   37.3990 H   0  0  0  0  0  0  0  0  0  0  0  0
   32.4727   34.1645   38.7319 H   0  0  0  0  0  0  0  0  0  0  0  0
  1  2  1  0
  2  3  2  0
  2  4  1  0
  4  5  2  0
  5  6  1  0
  6  7  2  0
  7  8  1  0
  8  9  2  0
  9 10  1  0
 10 11  2  0
 11 12  1  0
 12 13  2  0
 13 14  1  0
  8 15  1  0
 15 16  1  0
 16 17  1  0
 17 18  1  0
 18 19  2  0
 19 20  1  0
 19 21  1  0
 21 22  2  0
 22 23  1  0
 23 24  2  0
 21 25  1  0
 25 26  1  0
 26 27  2  0
 26 28  1  0
 28 29  1  0
 29 30  1  0
 13  4  1  0
 24 15  1  0
 30 25  1  0
 12  7  1  0
 24 18  1  0
  1 31  1  0
  1 32  1  0
  9 33  1  0
 10 34  1  0
 11 35  1  0
 14 36  1  0
 14 37  1  0
 16 38  1  0
 16 39  1  0
 17 40  1  0
 17 41  1  0
 22 42  1  0
 23 43  1  0
 28 44  1  0
 28 45  1  0
 29 46  1  0
 29 47  1  0
 30 48  1  0
 30 49  1  0
M  END
$$$$
confid_7
     RDKit          3D

 49 53  0  0  0  0  0  0  0  0999 V2000
   24.6900   26.1200   35.5300 N   0  0  0  0  0  0  0  0  0  0  0  0
   25.6600   25.6700   34.6600 C   0  0  0  0  0  0  0  0  0  0  0  0
   25.2400   25.0100   33.7200 O   0  0  0  0  0  0  0  0  0  0  0  0
   27.0300   26.2200   34.8800 C   0  0  0  0  0  0  0  0  0  0  0  0
   27.3500   26.7300   36.0700 N   0  0  0  0  0  0  0  0  0  0  0  0
   28.5700   27.1800   36.3300 N   0  0  0  0  0  0  0  0  0  0  0  0
   29.5300   27.1100   35.3900 C   0  0  0  0  0  0  0  0  0  0  0  0
   30.8300   27.5700   35.6500 C   0  0  0  0  0  0  0  0  0  0  0  0
   31.8500   27.5400   34.6900 C   0  0  0  0  0  0  0  0  0  0  0  0
   31.5100   27.1200   33.4000 C   0  0  0  0  0  0  0  0  0  0  0  0
   30.2200   26.6300   33.1100 C   0  0  0  0  0  0  0  0  0  0  0  0
   29.2400   26.6600   34.1000 C   0  0  0  0  0  0  0  0  0  0  0  0
   27.9300   26.2600   33.8100 C   0  0  0  0  0  0  0  0  0  0  0  0
   27.5200   25.7100   32.6100 N   0  0  0  0  0  0  0  0  0  0  0  0
   31.1580   28.0394   36.9662 N   0  0  0  0  0  0  0  0  0  0  0  0
   31.6434   29.3837   37.2769 C   0  0  0  0  0  0  0  0  0  0  0  0
   31.8626   29.4097   38.8101 C   0  0  0  0  0  0  0  0  0  0  0  0
   31.5604   28.0099   39.2282 C   0  0  0  0  0  0  0  0  0  0  0  0
   31.6565   27.4507   40.5043 C   0  0  0  0  0  0  0  0  0  0  0  0
   32.0076   28.2297   41.5581 F   0  0  0  0  0  0  0  0  0  0  0  0
   31.3449   26.0823   40.6735 C   0  0  0  0  0  0  0  0  0  0  0  0
   30.9230   25.3249   39.5552 C   0  0  0  0  0  0  0  0  0  0  0  0
   30.8375   25.9136   38.2840 C   0  0  0  0  0  0  0  0  0  0  0  0
   31.1558   27.2675   38.1551 C   0  0  0  0  0  0  0  0  0  0  0  0
   31.4353   25.4631   41.9694 N   0  0  0  0  0  0  0  0  0  0  0  0
   32.5123   25.5954   42.8805 C   0  0  0  0  0  0  0  0  0  0  0  0
   33.5660   26.2353   42.6198 O   0  0  0  0  0  0  0  0  0  0  0  0
   32.3064   24.8394   44.1313 C   0  0  0  0  0  0  0  0  0  0  0  0
   30.8960   24.2549   43.9612 C   0  0  0  0  0  0  0  0  0  0  0  0
   30.4659   24.5222   42.5063 C   0  0  0  0  0  0  0  0  0  0  0  0
   24.8910   26.7894   36.3059 H   0  0  0  0  0  0  0  0  0  0  0  0
   23.6980   25.8088   35.4218 H   0  0  0  0  0  0  0  0  0  0  0  0
   32.8539   27.8761   34.9164 H   0  0  0  0  0  0  0  0  0  0  0  0
   32.2647   27.1236   32.6242 H   0  0  0  0  0  0  0  0  0  0  0  0
   30.0104   26.3025   32.1006 H   0  0  0  0  0  0  0  0  0  0  0  0
   28.1313   25.0428   32.0898 H   0  0  0  0  0  0  0  0  0  0  0  0
   26.6943   26.1030   32.1052 H   0  0  0  0  0  0  0  0  0  0  0  0
   30.8881   30.1395   36.9735 H   0  0  0  0  0  0  0  0  0  0  0  0
   32.6018   29.5739   36.7476 H   0  0  0  0  0  0  0  0  0  0  0  0
   32.9138   29.6724   39.0589 H   0  0  0  0  0  0  0  0  0  0  0  0
   31.1581   30.1158   39.3005 H   0  0  0  0  0  0  0  0  0  0  0  0
   30.6828   24.2767   39.6615 H   0  0  0  0  0  0  0  0  0  0  0  0
   30.5369   25.3237   37.4282 H   0  0  0  0  0  0  0  0  0  0  0  0
   33.0625   24.0297   44.2130 H   0  0  0  0  0  0  0  0  0  0  0  0
   32.3614   25.5156   45.0116 H   0  0  0  0  0  0  0  0  0  0  0  0
   30.8919   23.1644   44.1795 H   0  0  0  0  0  0  0  0  0  0  0  0
   30.1941   24.7622   44.6602 H   0  0  0  0  0  0  0  0  0  0  0  0
   30.4993   23.5751   41.9261 H   0  0  0  0  0  0  0  0  0  0  0  0
   29.4429   24.9547   42.4655 H   0  0  0  0  0  0  0  0  0  0  0  0
  1  2  1  0
  2  3  2  0
  2  4  1  0
  4  5  2  0
  5  6  1  0
  6  7  2  0
  7  8  1  0
  8  9  2  0
  9 10  1  0
 10 11  2  0
 11 12  1  0
 12 13  2  0
 13 14  1  0
  8 15  1  0
 15 16  1  0
 16 17  1  0
 17 18  1  0
 18 19  2  0
 19 20  1  0
 19 21  1  0
 21 22  2  0
 22 23  1  0
 23 24  2  0
 21 25  1  0
 25 26  1  0
 26 27  2  0
 26 28  1  0
 28 29  1  0
 29 30  1  0
 13  4  1  0
 24 15  1  0
 30 25  1  0
 12  7  1  0
 24 18  1  0
  1 31  1  0
  1 32  1  0
  9 33  1  0
 10 34  1  0
 11 35  1  0
 14 36  1  0
 14 37  1  0
 16 38  1  0
 16 39  1  0
 17 40  1  0
 17 41  1  0
 22 42  1  0
 23 43  1  0
 28 44  1  0
 28 45  1  0
 29 46  1  0
 29 47  1  0
 30 48  1  0
 30 49  1  0
M  END
$$$$
confid_8
     RDKit          3D

 49 53  0  0  0  0  0  0  0  0999 V2000
   24.6900   26.1200   35.5300 N   0  0  0  0  0  0  0  0  0  0  0  0
   25.6600   25.6700   34.6600 C   0  0  0  0  0  0  0  0  0  0  0  0
   25.2400   25.0100   33.7200 O   0  0  0  0  0  0  0  0  0  0  0  0
   27.0300   26.2200   34.8800 C   0  0  0  0  0  0  0  0  0  0  0  0
   27.3500   26.7300   36.0700 N   0  0  0  0  0  0  0  0  0  0  0  0
   28.5700   27.1800   36.3300 N   0  0  0  0  0  0  0  0  0  0  0  0
   29.5300   27.1100   35.3900 C   0  0  0  0  0  0  0  0  0  0  0  0
   30.8300   27.5700   35.6500 C   0  0  0  0  0  0  0  0  0  0  0  0
   31.8500   27.5400   34.6900 C   0  0  0  0  0  0  0  0  0  0  0  0
   31.5100   27.1200   33.4000 C   0  0  0  0  0  0  0  0  0  0  0  0
   30.2200   26.6300   33.1100 C   0  0  0  0  0  0  0  0  0  0  0  0
   29.2400   26.6600   34.1000 C   0  0  0  0  0  0  0  0  0  0  0  0
   27.9300   26.2600   33.8100 C   0  0  0  0  0  0  0  0  0  0  0  0
   27.5200   25.7100   32.6100 N   0  0  0  0  0  0  0  0  0  0  0  0
   31.1533   28.0701   36.9564 N   0  0  0  0  0  0  0  0  0  0  0  0
   32.1348   27.4674   37.8577 C   0  0  0  0  0  0  0  0  0  0  0  0
   32.0754   28.2983   39.1634 C   0  0  0  0  0  0  0  0  0  0  0  0
   31.0696   29.3563   38.8575 C   0  0  0  0  0  0  0  0  0  0  0  0
   30.6553   30.4121   39.6719 C   0  0  0  0  0  0  0  0  0  0  0  0
   31.1890   30.5547   40.9103 F   0  0  0  0  0  0  0  0  0  0  0  0
   29.7098   31.3341   39.1654 C   0  0  0  0  0  0  0  0  0  0  0  0
   29.2108   31.1586   37.8515 C   0  0  0  0  0  0  0  0  0  0  0  0
   29.6480   30.0892   37.0558 C   0  0  0  0  0  0  0  0  0  0  0  0
   30.5726   29.1937   37.5959 C   0  0  0  0  0  0  0  0  0  0  0  0
   29.2417   32.4276   39.9786 N   0  0  0  0  0  0  0  0  0  0  0  0
   28.9137   33.7257   39.5134 C   0  0  0  0  0  0  0  0  0  0  0  0
   29.2052   34.1427   38.3608 O   0  0  0  0  0  0  0  0  0  0  0  0
   28.2581   34.5601   40.5390 C   0  0  0  0  0  0  0  0  0  0  0  0
   28.0704   33.5893   41.7127 C   0  0  0  0  0  0  0  0  0  0  0  0
   28.8756   32.3185   41.3823 C   0  0  0  0  0  0  0  0  0  0  0  0
   23.6982   25.8076   35.4229 H   0  0  0  0  0  0  0  0  0  0  0  0
   24.8908   26.7908   36.3048 H   0  0  0  0  0  0  0  0  0  0  0  0
   32.8495   27.8915   34.9123 H   0  0  0  0  0  0  0  0  0  0  0  0
   32.2650   27.1221   32.6246 H   0  0  0  0  0  0  0  0  0  0  0  0
   30.0113   26.2788   32.1078 H   0  0  0  0  0  0  0  0  0  0  0  0
   27.6977   26.2230   31.7183 H   0  0  0  0  0  0  0  0  0  0  0  0
   27.3415   24.6831   32.5416 H   0  0  0  0  0  0  0  0  0  0  0  0
   33.1494   27.5224   37.4080 H   0  0  0  0  0  0  0  0  0  0  0  0
   31.8665   26.4072   38.0555 H   0  0  0  0  0  0  0  0  0  0  0  0
   33.0621   28.7564   39.3898 H   0  0  0  0  0  0  0  0  0  0  0  0
   31.7298   27.6758   40.0164 H   0  0  0  0  0  0  0  0  0  0  0  0
   28.4700   31.8372   37.4499 H   0  0  0  0  0  0  0  0  0  0  0  0
   29.2712   29.9666   36.0489 H   0  0  0  0  0  0  0  0  0  0  0  0
   27.2827   34.9437   40.1703 H   0  0  0  0  0  0  0  0  0  0  0  0
   28.9264   35.4007   40.8244 H   0  0  0  0  0  0  0  0  0  0  0  0
   26.9932   33.3318   41.8148 H   0  0  0  0  0  0  0  0  0  0  0  0
   28.4208   34.0454   42.6642 H   0  0  0  0  0  0  0  0  0  0  0  0
   29.7917   32.2851   42.0092 H   0  0  0  0  0  0  0  0  0  0  0  0
   28.2635   31.4066   41.5547 H   0  0  0  0  0  0  0  0  0  0  0  0
  1  2  1  0
  2  3  2  0
  2  4  1  0
  4  5  2  0
  5  6  1  0
  6  7  2  0
  7  8  1  0
  8  9  2  0
  9 10  1  0
 10 11  2  0
 11 12  1  0
 12 13  2  0
 13 14  1  0
  8 15  1  0
 15 16  1  0
 16 17  1  0
 17 18  1  0
 18 19  2  0
 19 20  1  0
 19 21  1  0
 21 22  2  0
 22 23  1  0
 23 24  2  0
 21 25  1  0
 25 26  1  0
 26 27  2  0
 26 28  1  0
 28 29  1  0
 29 30  1  0
 13  4  1  0
 24 15  1  0
 30 25  1  0
 12  7  1  0
 24 18  1  0
  1 31  1  0
  1 32  1  0
  9 33  1  0
 10 34  1  0
 11 35  1  0
 14 36  1  0
 14 37  1  0
 16 38  1  0
 16 39  1  0
 17 40  1  0
 17 41  1  0
 22 42  1  0
 23 43  1  0
 28 44  1  0
 28 45  1  0
 29 46  1  0
 29 47  1  0
 30 48  1  0
 30 49  1  0
M  END
$$$$
