confid_0
     RDKit          3D

 38 41  0  0  0  0  0  0  0  0999 V2000
   24.5700   26.8800   35.5900 N   0  0  0  0  0  0  0  0  0  0  0  0
   25.5000   26.4000   34.6900 C   0  0  0  0  0  0  0  0  0  0  0  0
   25.1700   25.5200   33.9100 O   0  0  0  0  0  0  0  0  0  0  0  0
   26.8400   27.0200   34.7400 C   0  0  0  0  0  0  0  0  0  0  0  0
   27.3800   27.2800   35.9400 N   0  0  0  0  0  0  0  0  0  0  0  0
   28.6200   27.7400   36.0300 N   0  0  0  0  0  0  0  0  0  0  0  0
   29.3800   28.0000   34.9600 C   0  0  0  0  0  0  0  0  0  0  0  0
   30.6700   28.5000   35.1300 C   0  0  0  0  0  0  0  0  0  0  0  0
   31.5400   28.6100   34.0300 C   0  0  0  0  0  0  0  0  0  0  0  0
   31.0900   28.2200   32.7700 C   0  0  0  0  0  0  0  0  0  0  0  0
   29.8000   27.7000   32.6000 C   0  0  0  0  0  0  0  0  0  0  0  0
   28.9600   27.5500   33.7100 C   0  0  0  0  0  0  0  0  0  0  0  0
   27.6600   27.0300   33.5900 C   0  0  0  0  0  0  0  0  0  0  0  0
   27.1600   26.7400   32.3400 N   0  0  0  0  0  0  0  0  0  0  0  0
   23.3162   26.2393   35.8975 C   0  0  0  0  0  0  0  0  0  0  0  0
   23.0354   24.9893   35.4299 N   0  0  0  0  0  0  0  0  0  0  0  0
   21.8677   24.3550   35.7149 C   0  0  0  0  0  0  0  0  0  0  0  0
   20.9145   24.9793   36.5194 C   0  0  0  0  0  0  0  0  0  0  0  0
   19.7143   24.3322   36.8343 O   0  0  0  0  0  0  0  0  0  0  0  0
   18.8418   24.8312   37.8505 C   0  0  0  0  0  0  0  0  0  0  0  0
   18.7853   26.3614   37.8001 C   0  0  0  0  0  0  0  0  0  0  0  0
   20.1438   26.9094   37.8020 N   0  0  0  0  0  0  0  0  0  0  0  0
   21.1617   26.2684   37.0112 C   0  0  0  0  0  0  0  0  0  0  0  0
   22.3766   26.8993   36.7050 C   0  0  0  0  0  0  0  0  0  0  0  0
   20.4967   28.2922   38.8089 Cl  0  0  0  0  0  0  0  0  0  0  0  0
   24.7801   27.7780   36.0844 H   0  0  0  0  0  0  0  0  0  0  0  0
   31.0179   28.7883   36.1144 H   0  0  0  0  0  0  0  0  0  0  0  0
   32.5424   28.9969   34.1597 H   0  0  0  0  0  0  0  0  0  0  0  0
   31.7487   28.3095   31.9157 H   0  0  0  0  0  0  0  0  0  0  0  0
   29.5077   27.3813   31.6085 H   0  0  0  0  0  0  0  0  0  0  0  0
   27.2453   27.4248   31.5561 H   0  0  0  0  0  0  0  0  0  0  0  0
   26.7451   25.8074   32.1267 H   0  0  0  0  0  0  0  0  0  0  0  0
   21.6862   23.3625   35.3245 H   0  0  0  0  0  0  0  0  0  0  0  0
   17.8261   24.4065   37.7071 H   0  0  0  0  0  0  0  0  0  0  0  0
   19.2227   24.5112   38.8443 H   0  0  0  0  0  0  0  0  0  0  0  0
   18.2089   26.7457   38.6688 H   0  0  0  0  0  0  0  0  0  0  0  0
   18.2701   26.6760   36.8673 H   0  0  0  0  0  0  0  0  0  0  0  0
   22.5880   27.8958   37.0693 H   0  0  0  0  0  0  0  0  0  0  0  0
  1  2  1  0
  2  3  2  0
  2  4  1  0
  4  5  2  0
  5  6  1  0
  6  7  2  0
  7  8  1  0
  8  9  2  0
  9 10  1  0
 10 11  2  0
 11 12  1  0
 12 13  2  0
 13 14  1  0
  1 15  1  0
 15 16  2  0
 16 17  1  0
 17 18  2  0
 18 19  1  0
 19 20  1  0
 20 21  1  0
 21 22  1  0
 22 23  1  0
 23 24  2  0
 22 25  1  0
 13  4  1  0
 24 15  1  0
 12  7  1  0
 23 18  1  0
  1 26  1  0
  8 27  1  0
  9 28  1  0
 10 29  1  0
 11 30  1  0
 14 31  1  0
 14 32  1  0
 17 33  1  0
 20 34  1  0
 20 35  1  0
 21 36  1  0
 21 37  1  0
 24 38  1  0
M  END
$$$$
confid_1
     RDKit          3D

 38 41  0  0  0  0  0  0  0  0999 V2000
   24.5700   26.8800   35.5900 N   0  0  0  0  0  0  0  0  0  0  0  0
   25.5000   26.4000   34.6900 C   0  0  0  0  0  0  0  0  0  0  0  0
   25.1700   25.5200   33.9100 O   0  0  0  0  0  0  0  0  0  0  0  0
   26.8400   27.0200   34.7400 C   0  0  0  0  0  0  0  0  0  0  0  0
   27.3800   27.2800   35.9400 N   0  0  0  0  0  0  0  0  0  0  0  0
   28.6200   27.7400   36.0300 N   0  0  0  0  0  0  0  0  0  0  0  0
   29.3800   28.0000   34.9600 C   0  0  0  0  0  0  0  0  0  0  0  0
   30.6700   28.5000   35.1300 C   0  0  0  0  0  0  0  0  0  0  0  0
   31.5400   28.6100   34.0300 C   0  0  0  0  0  0  0  0  0  0  0  0
   31.0900   28.2200   32.7700 C   0  0  0  0  0  0  0  0  0  0  0  0
   29.8000   27.7000   32.6000 C   0  0  0  0  0  0  0  0  0  0  0  0
   28.9600   27.5500   33.7100 C   0  0  0  0  0  0  0  0  0  0  0  0
   27.6600   27.0300   33.5900 C   0  0  0  0  0  0  0  0  0  0  0  0
   27.1600   26.7400   32.3400 N   0  0  0  0  0  0  0  0  0  0  0  0
   23.3690   26.1880   35.9734 C   0  0  0  0  0  0  0  0  0  0  0  0
   22.2715   26.9163   36.3200 N   0  0  0  0  0  0  0  0  0  0  0  0
   21.1105   26.3323   36.7177 C   0  0  0  0  0  0  0  0  0  0  0  0
   21.0218   24.9428   36.7995 C   0  0  0  0  0  0  0  0  0  0  0  0
   19.8371   24.3289   37.2214 O   0  0  0  0  0  0  0  0  0  0  0  0
   19.7964   22.9425   37.5660 C   0  0  0  0  0  0  0  0  0  0  0  0
   20.6673   22.1285   36.6039 C   0  0  0  0  0  0  0  0  0  0  0  0
   22.0026   22.7242   36.5171 N   0  0  0  0  0  0  0  0  0  0  0  0
   22.1305   24.1570   36.4559 C   0  0  0  0  0  0  0  0  0  0  0  0
   23.3195   24.7838   36.0541 C   0  0  0  0  0  0  0  0  0  0  0  0
   23.3990   21.6752   36.5385 Cl  0  0  0  0  0  0  0  0  0  0  0  0
   24.6928   27.8515   35.9576 H   0  0  0  0  0  0  0  0  0  0  0  0
   31.0178   28.7888   36.1143 H   0  0  0  0  0  0  0  0  0  0  0  0
   32.5416   28.9991   34.1593 H   0  0  0  0  0  0  0  0  0  0  0  0
   31.7454   28.3188   31.9142 H   0  0  0  0  0  0  0  0  0  0  0  0
   29.5013   27.4243   31.5992 H   0  0  0  0  0  0  0  0  0  0  0  0
   27.7096   26.1832   31.6493 H   0  0  0  0  0  0  0  0  0  0  0  0
   26.1711   26.9655   32.0920 H   0  0  0  0  0  0  0  0  0  0  0  0
   20.2618   26.9492   36.9813 H   0  0  0  0  0  0  0  0  0  0  0  0
   18.7468   22.5827   37.5286 H   0  0  0  0  0  0  0  0  0  0  0  0
   20.1777   22.8154   38.6021 H   0  0  0  0  0  0  0  0  0  0  0  0
   20.2014   22.1372   35.5952 H   0  0  0  0  0  0  0  0  0  0  0  0
   20.7323   21.0758   36.9539 H   0  0  0  0  0  0  0  0  0  0  0  0
   24.1928   24.1932   35.8168 H   0  0  0  0  0  0  0  0  0  0  0  0
  1  2  1  0
  2  3  2  0
  2  4  1  0
  4  5  2  0
  5  6  1  0
  6  7  2  0
  7  8  1  0
  8  9  2  0
  9 10  1  0
 10 11  2  0
 11 12  1  0
 12 13  2  0
 13 14  1  0
  1 15  1  0
 15 16  2  0
 16 17  1  0
 17 18  2  0
 18 19  1  0
 19 20  1  0
 20 21  1  0
 21 22  1  0
 22 23  1  0
 23 24  2  0
 22 25  1  0
 13  4  1  0
 24 15  1  0
 12  7  1  0
 23 18  1  0
  1 26  1  0
  8 27  1  0
  9 28  1  0
 10 29  1  0
 11 30  1  0
 14 31  1  0
 14 32  1  0
 17 33  1  0
 20 34  1  0
 20 35  1  0
 21 36  1  0
 21 37  1  0
 24 38  1  0
M  END
$$$$
confid_2
     RDKit          3D

 38 41  0  0  0  0  0  0  0  0999 V2000
   24.5700   26.8800   35.5900 N   0  0  0  0  0  0  0  0  0  0  0  0
   25.5000   26.4000   34.6900 C   0  0  0  0  0  0  0  0  0  0  0  0
   25.1700   25.5200   33.9100 O   0  0  0  0  0  0  0  0  0  0  0  0
   26.8400   27.0200   34.7400 C   0  0  0  0  0  0  0  0  0  0  0  0
   27.3800   27.2800   35.9400 N   0  0  0  0  0  0  0  0  0  0  0  0
   28.6200   27.7400   36.0300 N   0  0  0  0  0  0  0  0  0  0  0  0
   29.3800   28.0000   34.9600 C   0  0  0  0  0  0  0  0  0  0  0  0
   30.6700   28.5000   35.1300 C   0  0  0  0  0  0  0  0  0  0  0  0
   31.5400   28.6100   34.0300 C   0  0  0  0  0  0  0  0  0  0  0  0
   31.0900   28.2200   32.7700 C   0  0  0  0  0  0  0  0  0  0  0  0
   29.8000   27.7000   32.6000 C   0  0  0  0  0  0  0  0  0  0  0  0
   28.9600   27.5500   33.7100 C   0  0  0  0  0  0  0  0  0  0  0  0
   27.6600   27.0300   33.5900 C   0  0  0  0  0  0  0  0  0  0  0  0
   27.1600   26.7400   32.3400 N   0  0  0  0  0  0  0  0  0  0  0  0
   23.1472   26.7207   35.4517 C   0  0  0  0  0  0  0  0  0  0  0  0
   22.3827   26.6250   36.5748 N   0  0  0  0  0  0  0  0  0  0  0  0
   21.0304   26.5002   36.5220 C   0  0  0  0  0  0  0  0  0  0  0  0
   20.3794   26.4866   35.2886 C   0  0  0  0  0  0  0  0  0  0  0  0
   18.9862   26.3734   35.2204 O   0  0  0  0  0  0  0  0  0  0  0  0
   18.2759   26.6202   34.0049 C   0  0  0  0  0  0  0  0  0  0  0  0
   19.0532   26.0591   32.8101 C   0  0  0  0  0  0  0  0  0  0  0  0
   20.4369   26.5382   32.8477 N   0  0  0  0  0  0  0  0  0  0  0  0
   21.1296   26.5879   34.1089 C   0  0  0  0  0  0  0  0  0  0  0  0
   22.5236   26.7219   34.1900 C   0  0  0  0  0  0  0  0  0  0  0  0
   21.1853   27.0768   31.3642 Cl  0  0  0  0  0  0  0  0  0  0  0  0
   24.9016   27.3315   36.4725 H   0  0  0  0  0  0  0  0  0  0  0  0
   31.0178   28.7888   36.1143 H   0  0  0  0  0  0  0  0  0  0  0  0
   32.5416   28.9991   34.1593 H   0  0  0  0  0  0  0  0  0  0  0  0
   31.7454   28.3188   31.9142 H   0  0  0  0  0  0  0  0  0  0  0  0
   29.5013   27.4244   31.5992 H   0  0  0  0  0  0  0  0  0  0  0  0
   27.7097   26.1836   31.6491 H   0  0  0  0  0  0  0  0  0  0  0  0
   26.1706   26.9644   32.0925 H   0  0  0  0  0  0  0  0  0  0  0  0
   20.4619   26.4239   37.4393 H   0  0  0  0  0  0  0  0  0  0  0  0
   17.2715   26.1508   34.0618 H   0  0  0  0  0  0  0  0  0  0  0  0
   18.1478   27.7166   33.8764 H   0  0  0  0  0  0  0  0  0  0  0  0
   19.0535   24.9493   32.8648 H   0  0  0  0  0  0  0  0  0  0  0  0
   18.5603   26.3659   31.8626 H   0  0  0  0  0  0  0  0  0  0  0  0
   23.1129   26.8341   33.2910 H   0  0  0  0  0  0  0  0  0  0  0  0
  1  2  1  0
  2  3  2  0
  2  4  1  0
  4  5  2  0
  5  6  1  0
  6  7  2  0
  7  8  1  0
  8  9  2  0
  9 10  1  0
 10 11  2  0
 11 12  1  0
 12 13  2  0
 13 14  1  0
  1 15  1  0
 15 16  2  0
 16 17  1  0
 17 18  2  0
 18 19  1  0
 19 20  1  0
 20 21  1  0
 21 22  1  0
 22 23  1  0
 23 24  2  0
 22 25  1  0
 13  4  1  0
 24 15  1  0
 12  7  1  0
 23 18  1  0
  1 26  1  0
  8 27  1  0
  9 28  1  0
 10 29  1  0
 11 30  1  0
 14 31  1  0
 14 32  1  0
 17 33  1  0
 20 34  1  0
 20 35  1  0
 21 36  1  0
 21 37  1  0
 24 38  1  0
M  END
$$$$
confid_3
     RDKit          3D

 38 41  0  0  0  0  0  0  0  0999 V2000
   24.5700   26.8800   35.5900 N   0  0  0  0  0  0  0  0  0  0  0  0
   25.5000   26.4000   34.6900 C   0  0  0  0  0  0  0  0  0  0  0  0
   25.1700   25.5200   33.9100 O   0  0  0  0  0  0  0  0  0  0  0  0
   26.8400   27.0200   34.7400 C   0  0  0  0  0  0  0  0  0  0  0  0
   27.3800   27.2800   35.9400 N   0  0  0  0  0  0  0  0  0  0  0  0
   28.6200   27.7400   36.0300 N   0  0  0  0  0  0  0  0  0  0  0  0
   29.3800   28.0000   34.9600 C   0  0  0  0  0  0  0  0  0  0  0  0
   30.6700   28.5000   35.1300 C   0  0  0  0  0  0  0  0  0  0  0  0
   31.5400   28.6100   34.0300 C   0  0  0  0  0  0  0  0  0  0  0  0
   31.0900   28.2200   32.7700 C   0  0  0  0  0  0  0  0  0  0  0  0
   29.8000   27.7000   32.6000 C   0  0  0  0  0  0  0  0  0  0  0  0
   28.9600   27.5500   33.7100 C   0  0  0  0  0  0  0  0  0  0  0  0
   27.6600   27.0300   33.5900 C   0  0  0  0  0  0  0  0  0  0  0  0
   27.1600   26.7400   32.3400 N   0  0  0  0  0  0  0  0  0  0  0  0
   23.3162   26.2390   35.8970 C   0  0  0  0  0  0  0  0  0  0  0  0
   23.0407   24.9845   35.4382 N   0  0  0  0  0  0  0  0  0  0  0  0
   21.8741   24.3489   35.7245 C   0  0  0  0  0  0  0  0  0  0  0  0
   20.9112   24.9814   36.5108 C   0  0  0  0  0  0  0  0  0  0  0  0
   19.6988   24.3458   36.8009 O   0  0  0  0  0  0  0  0  0  0  0  0
   18.6039   25.0569   37.3827 C   0  0  0  0  0  0  0  0  0  0  0  0
   19.1112   26.0462   38.4368 C   0  0  0  0  0  0  0  0  0  0  0  0
   20.1781   26.8740   37.8692 N   0  0  0  0  0  0  0  0  0  0  0  0
   21.1664   26.2623   37.0198 C   0  0  0  0  0  0  0  0  0  0  0  0
   22.3773   26.8975   36.7065 C   0  0  0  0  0  0  0  0  0  0  0  0
   20.1831   28.5895   38.1974 Cl  0  0  0  0  0  0  0  0  0  0  0  0
   24.7792   27.7788   36.0832 H   0  0  0  0  0  0  0  0  0  0  0  0
   31.0179   28.7883   36.1144 H   0  0  0  0  0  0  0  0  0  0  0  0
   32.5424   28.9969   34.1597 H   0  0  0  0  0  0  0  0  0  0  0  0
   31.7487   28.3095   31.9157 H   0  0  0  0  0  0  0  0  0  0  0  0
   29.5077   27.3813   31.6085 H   0  0  0  0  0  0  0  0  0  0  0  0
   26.7451   25.8074   32.1267 H   0  0  0  0  0  0  0  0  0  0  0  0
   27.2453   27.4248   31.5561 H   0  0  0  0  0  0  0  0  0  0  0  0
   21.6935   23.3560   35.3346 H   0  0  0  0  0  0  0  0  0  0  0  0
   17.8978   24.3353   37.8445 H   0  0  0  0  0  0  0  0  0  0  0  0
   18.0689   25.6147   36.5841 H   0  0  0  0  0  0  0  0  0  0  0  0
   19.5154   25.4797   39.3029 H   0  0  0  0  0  0  0  0  0  0  0  0
   18.2717   26.6820   38.7914 H   0  0  0  0  0  0  0  0  0  0  0  0
   22.6001   27.8825   37.0944 H   0  0  0  0  0  0  0  0  0  0  0  0
  1  2  1  0
  2  3  2  0
  2  4  1  0
  4  5  2  0
  5  6  1  0
  6  7  2  0
  7  8  1  0
  8  9  2  0
  9 10  1  0
 10 11  2  0
 11 12  1  0
 12 13  2  0
 13 14  1  0
  1 15  1  0
 15 16  2  0
 16 17  1  0
 17 18  2  0
 18 19  1  0
 19 20  1  0
 20 21  1  0
 21 22  1  0
 22 23  1  0
 23 24  2  0
 22 25  1  0
 13  4  1  0
 24 15  1  0
 12  7  1  0
 23 18  1  0
  1 26  1  0
  8 27  1  0
  9 28  1  0
 10 29  1  0
 11 30  1  0
 14 31  1  0
 14 32  1  0
 17 33  1  0
 20 34  1  0
 20 35  1  0
 21 36  1  0
 21 37  1  0
 24 38  1  0
M  END
$$$$
confid_4
     RDKit          3D

 38 41  0  0  0  0  0  0  0  0999 V2000
   24.5700   26.8800   35.5900 N   0  0  0  0  0  0  0  0  0  0  0  0
   25.5000   26.4000   34.6900 C   0  0  0  0  0  0  0  0  0  0  0  0
   25.1700   25.5200   33.9100 O   0  0  0  0  0  0  0  0  0  0  0  0
   26.8400   27.0200   34.7400 C   0  0  0  0  0  0  0  0  0  0  0  0
   27.3800   27.2800   35.9400 N   0  0  0  0  0  0  0  0  0  0  0  0
   28.6200   27.7400   36.0300 N   0  0  0  0  0  0  0  0  0  0  0  0
   29.3800   28.0000   34.9600 C   0  0  0  0  0  0  0  0  0  0  0  0
   30.6700   28.5000   35.1300 C   0  0  0  0  0  0  0  0  0  0  0  0
   31.5400   28.6100   34.0300 C   0  0  0  0  0  0  0  0  0  0  0  0
   31.0900   28.2200   32.7700 C   0  0  0  0  0  0  0  0  0  0  0  0
   29.8000   27.7000   32.6000 C   0  0  0  0  0  0  0  0  0  0  0  0
   28.9600   27.5500   33.7100 C   0  0  0  0  0  0  0  0  0  0  0  0
   27.6600   27.0300   33.5900 C   0  0  0  0  0  0  0  0  0  0  0  0
   27.1600   26.7400   32.3400 N   0  0  0  0  0  0  0  0  0  0  0  0
   23.3659   26.1906   35.9684 C   0  0  0  0  0  0  0  0  0  0  0  0
   22.2749   26.9210   36.3310 N   0  0  0  0  0  0  0  0  0  0  0  0
   21.1120   26.3388   36.7260 C   0  0  0  0  0  0  0  0  0  0  0  0
   21.0103   24.9487   36.7753 C   0  0  0  0  0  0  0  0  0  0  0  0
   19.8140   24.3353   37.1637 O   0  0  0  0  0  0  0  0  0  0  0  0
   19.6044   22.9321   36.9912 C   0  0  0  0  0  0  0  0  0  0  0  0
   20.8884   22.1591   37.3089 C   0  0  0  0  0  0  0  0  0  0  0  0
   22.0108   22.7312   36.5615 N   0  0  0  0  0  0  0  0  0  0  0  0
   22.1220   24.1617   36.4448 C   0  0  0  0  0  0  0  0  0  0  0  0
   23.3110   24.7863   36.0402 C   0  0  0  0  0  0  0  0  0  0  0  0
   23.1411   21.6554   35.7766 Cl  0  0  0  0  0  0  0  0  0  0  0  0
   24.6955   27.8495   35.9618 H   0  0  0  0  0  0  0  0  0  0  0  0
   31.0178   28.7888   36.1143 H   0  0  0  0  0  0  0  0  0  0  0  0
   32.5416   28.9991   34.1593 H   0  0  0  0  0  0  0  0  0  0  0  0
   31.7454   28.3188   31.9142 H   0  0  0  0  0  0  0  0  0  0  0  0
   29.5013   27.4243   31.5992 H   0  0  0  0  0  0  0  0  0  0  0  0
   27.7096   26.1832   31.6493 H   0  0  0  0  0  0  0  0  0  0  0  0
   26.1711   26.9655   32.0920 H   0  0  0  0  0  0  0  0  0  0  0  0
   20.2660   26.9572   36.9952 H   0  0  0  0  0  0  0  0  0  0  0  0
   19.3101   22.7364   35.9376 H   0  0  0  0  0  0  0  0  0  0  0  0
   18.7818   22.5964   37.6568 H   0  0  0  0  0  0  0  0  0  0  0  0
   21.1010   22.2380   38.3967 H   0  0  0  0  0  0  0  0  0  0  0  0
   20.7555   21.0862   37.0520 H   0  0  0  0  0  0  0  0  0  0  0  0
   24.1899   24.1948   35.8254 H   0  0  0  0  0  0  0  0  0  0  0  0
  1  2  1  0
  2  3  2  0
  2  4  1  0
  4  5  2  0
  5  6  1  0
  6  7  2  0
  7  8  1  0
  8  9  2  0
  9 10  1  0
 10 11  2  0
 11 12  1  0
 12 13  2  0
 13 14  1  0
  1 15  1  0
 15 16  2  0
 16 17  1  0
 17 18  2  0
 18 19  1  0
 19 20  1  0
 20 21  1  0
 21 22  1  0
 22 23  1  0
 23 24  2  0
 22 25  1  0
 13  4  1  0
 24 15  1  0
 12  7  1  0
 23 18  1  0
  1 26  1  0
  8 27  1  0
  9 28  1  0
 10 29  1  0
 11 30  1  0
 14 31  1  0
 14 32  1  0
 17 33  1  0
 20 34  1  0
 20 35  1  0
 21 36  1  0
 21 37  1  0
 24 38  1  0
M  END
$$$$
