confid_0
     RDKit          3D

 49 52  0  0  0  0  0  0  0  0999 V2000
   24.5700   26.8800   35.5900 N   0  0  0  0  0  0  0  0  0  0  0  0
   25.5000   26.4000   34.6900 C   0  0  0  0  0  0  0  0  0  0  0  0
   25.1700   25.5200   33.9100 O   0  0  0  0  0  0  0  0  0  0  0  0
   26.8400   27.0200   34.7400 C   0  0  0  0  0  0  0  0  0  0  0  0
   27.3800   27.2800   35.9400 N   0  0  0  0  0  0  0  0  0  0  0  0
   28.6200   27.7400   36.0300 N   0  0  0  0  0  0  0  0  0  0  0  0
   29.3800   28.0000   34.9600 C   0  0  0  0  0  0  0  0  0  0  0  0
   30.6700   28.5000   35.1300 C   0  0  0  0  0  0  0  0  0  0  0  0
   31.5400   28.6100   34.0300 C   0  0  0  0  0  0  0  0  0  0  0  0
   31.0900   28.2200   32.7700 C   0  0  0  0  0  0  0  0  0  0  0  0
   29.8000   27.7000   32.6000 C   0  0  0  0  0  0  0  0  0  0  0  0
   28.9600   27.5500   33.7100 C   0  0  0  0  0  0  0  0  0  0  0  0
   27.6600   27.0300   33.5900 C   0  0  0  0  0  0  0  0  0  0  0  0
   27.1600   26.7400   32.3400 N   0  0  0  0  0  0  0  0  0  0  0  0
   23.3745   26.1762   35.9853 C   0  0  0  0  0  0  0  0  0  0  0  0
   23.2534   24.9001   35.6904 N   0  0  0  0  0  0  0  0  0  0  0  0
   22.1834   23.9907   36.0314 C   0  0  0  0  0  0  0  0  0  0  0  0
   20.8951   24.3683   36.0926 C   0  0  0  0  0  0  0  0  0  0  0  0
   20.5493   25.7361   35.6475 C   0  0  0  0  0  0  0  0  0  0  0  0
   20.9641   26.5435   36.7791 N   0  0  0  0  0  0  0  0  0  0  0  0
   20.2873   26.2750   38.0712 C   0  0  0  0  0  0  0  0  0  0  0  0
   19.4672   24.9417   38.0530 C   0  0  0  0  0  0  0  0  0  0  0  0
   20.1005   23.9039   37.2003 N   0  0  0  0  0  0  0  0  0  0  0  0
   19.9024   22.4640   37.4444 C   0  0  0  0  0  0  0  0  0  0  0  0
   18.4105   22.1189   37.5014 C   0  0  0  0  0  0  0  0  0  0  0  0
   20.6225   22.0247   38.7239 C   0  0  0  0  0  0  0  0  0  0  0  0
   22.3547   26.9153   36.8012 C   0  0  0  0  0  0  0  0  0  0  0  0
   22.7191   27.8858   37.5181 O   0  0  0  0  0  0  0  0  0  0  0  0
   24.7382   27.8238   36.0074 H   0  0  0  0  0  0  0  0  0  0  0  0
   31.0177   28.7888   36.1144 H   0  0  0  0  0  0  0  0  0  0  0  0
   32.5417   28.9990   34.1594 H   0  0  0  0  0  0  0  0  0  0  0  0
   31.7455   28.3188   31.9142 H   0  0  0  0  0  0  0  0  0  0  0  0
   29.5012   27.4244   31.5992 H   0  0  0  0  0  0  0  0  0  0  0  0
   26.1714   26.9663   32.0916 H   0  0  0  0  0  0  0  0  0  0  0  0
   27.7095   26.1825   31.6496 H   0  0  0  0  0  0  0  0  0  0  0  0
   22.4688   23.0170   36.4067 H   0  0  0  0  0  0  0  0  0  0  0  0
   21.0562   26.0318   34.7011 H   0  0  0  0  0  0  0  0  0  0  0  0
   19.4542   25.8330   35.4806 H   0  0  0  0  0  0  0  0  0  0  0  0
   21.0434   26.1916   38.8834 H   0  0  0  0  0  0  0  0  0  0  0  0
   19.6190   27.1260   38.3204 H   0  0  0  0  0  0  0  0  0  0  0  0
   19.3439   24.5778   39.0939 H   0  0  0  0  0  0  0  0  0  0  0  0
   18.4521   25.1542   37.6543 H   0  0  0  0  0  0  0  0  0  0  0  0
   20.3348   21.8826   36.5994 H   0  0  0  0  0  0  0  0  0  0  0  0
   18.2774   21.0192   37.5833 H   0  0  0  0  0  0  0  0  0  0  0  0
   17.9082   22.4644   36.5730 H   0  0  0  0  0  0  0  0  0  0  0  0
   17.9212   22.6015   38.3740 H   0  0  0  0  0  0  0  0  0  0  0  0
   20.5830   20.9188   38.8194 H   0  0  0  0  0  0  0  0  0  0  0  0
   20.1531   22.4716   39.6249 H   0  0  0  0  0  0  0  0  0  0  0  0
   21.6882   22.3335   38.6867 H   0  0  0  0  0  0  0  0  0  0  0  0
  1  2  1  0
  2  3  2  0
  2  4  1  0
  4  5  2  0
  5  6  1  0
  6  7  2  0
  7  8  1  0
  8  9  2  0
  9 10  1  0
 10 11  2  0
 11 12  1  0
 12 13  2  0
 13 14  1  0
  1 15  1  0
 15 16  2  0
 16 17  1  0
 17 18  2  0
 18 19  1  0
 19 20  1  0
 20 21  1  0
 21 22  1  0
 22 23  1  0
 23 24  1  0
 24 25  1  0
 24 26  1  0
 20 27  1  0
 27 28  2  0
 13  4  1  0
 27 15  1  0
 12  7  1  0
 23 18  1  0
  1 29  1  0
  8 30  1  0
  9 31  1  0
 10 32  1  0
 11 33  1  0
 14 34  1  0
 14 35  1  0
 17 36  1  0
 19 37  1  0
 19 38  1  0
 21 39  1  0
 21 40  1  0
 22 41  1  0
 22 42  1  0
 24 43  1  0
 25 44  1  0
 25 45  1  0
 25 46  1  0
 26 47  1  0
 26 48  1  0
 26 49  1  0
M  END
$$$$
confid_1
     RDKit          3D

 49 52  0  0  0  0  0  0  0  0999 V2000
   24.5700   26.8800   35.5900 N   0  0  0  0  0  0  0  0  0  0  0  0
   25.5000   26.4000   34.6900 C   0  0  0  0  0  0  0  0  0  0  0  0
   25.1700   25.5200   33.9100 O   0  0  0  0  0  0  0  0  0  0  0  0
   26.8400   27.0200   34.7400 C   0  0  0  0  0  0  0  0  0  0  0  0
   27.3800   27.2800   35.9400 N   0  0  0  0  0  0  0  0  0  0  0  0
   28.6200   27.7400   36.0300 N   0  0  0  0  0  0  0  0  0  0  0  0
   29.3800   28.0000   34.9600 C   0  0  0  0  0  0  0  0  0  0  0  0
   30.6700   28.5000   35.1300 C   0  0  0  0  0  0  0  0  0  0  0  0
   31.5400   28.6100   34.0300 C   0  0  0  0  0  0  0  0  0  0  0  0
   31.0900   28.2200   32.7700 C   0  0  0  0  0  0  0  0  0  0  0  0
   29.8000   27.7000   32.6000 C   0  0  0  0  0  0  0  0  0  0  0  0
   28.9600   27.5500   33.7100 C   0  0  0  0  0  0  0  0  0  0  0  0
   27.6600   27.0300   33.5900 C   0  0  0  0  0  0  0  0  0  0  0  0
   27.1600   26.7400   32.3400 N   0  0  0  0  0  0  0  0  0  0  0  0
   23.1548   26.6000   35.5401 C   0  0  0  0  0  0  0  0  0  0  0  0
   22.6315   26.1218   34.4324 N   0  0  0  0  0  0  0  0  0  0  0  0
   21.2474   25.8277   34.1407 C   0  0  0  0  0  0  0  0  0  0  0  0
   20.3930   25.3492   35.0604 C   0  0  0  0  0  0  0  0  0  0  0  0
   20.9317   24.9780   36.3863 C   0  0  0  0  0  0  0  0  0  0  0  0
   21.0922   26.2691   37.0269 N   0  0  0  0  0  0  0  0  0  0  0  0
   19.8608   27.0712   37.2229 C   0  0  0  0  0  0  0  0  0  0  0  0
   18.6479   26.5256   36.3955 C   0  0  0  0  0  0  0  0  0  0  0  0
   19.0691   25.9102   35.1115 N   0  0  0  0  0  0  0  0  0  0  0  0
   18.1463   25.7701   33.9713 C   0  0  0  0  0  0  0  0  0  0  0  0
   16.8691   25.0345   34.3895 C   0  0  0  0  0  0  0  0  0  0  0  0
   17.8239   27.1375   33.3606 C   0  0  0  0  0  0  0  0  0  0  0  0
   22.3196   26.9617   36.7336 C   0  0  0  0  0  0  0  0  0  0  0  0
   22.6998   27.8870   37.4999 O   0  0  0  0  0  0  0  0  0  0  0  0
   24.9018   27.4952   36.3673 H   0  0  0  0  0  0  0  0  0  0  0  0
   31.0176   28.7890   36.1143 H   0  0  0  0  0  0  0  0  0  0  0  0
   32.5417   28.9990   34.1593 H   0  0  0  0  0  0  0  0  0  0  0  0
   31.7454   28.3189   31.9142 H   0  0  0  0  0  0  0  0  0  0  0  0
   29.5014   27.4243   31.5992 H   0  0  0  0  0  0  0  0  0  0  0  0
   27.7097   26.1833   31.6493 H   0  0  0  0  0  0  0  0  0  0  0  0
   26.1707   26.9640   32.0926 H   0  0  0  0  0  0  0  0  0  0  0  0
   20.8605   26.1735   33.1918 H   0  0  0  0  0  0  0  0  0  0  0  0
   21.8857   24.4075   36.3282 H   0  0  0  0  0  0  0  0  0  0  0  0
   20.2043   24.3520   36.9478 H   0  0  0  0  0  0  0  0  0  0  0  0
   20.0400   28.1217   36.9029 H   0  0  0  0  0  0  0  0  0  0  0  0
   19.6027   27.0882   38.3025 H   0  0  0  0  0  0  0  0  0  0  0  0
   18.1228   25.7557   37.0006 H   0  0  0  0  0  0  0  0  0  0  0  0
   17.9311   27.3537   36.2179 H   0  0  0  0  0  0  0  0  0  0  0  0
   18.6286   25.1562   33.1776 H   0  0  0  0  0  0  0  0  0  0  0  0
   16.2853   25.6341   35.1199 H   0  0  0  0  0  0  0  0  0  0  0  0
   17.1314   24.0598   34.8526 H   0  0  0  0  0  0  0  0  0  0  0  0
   16.2330   24.8401   33.4996 H   0  0  0  0  0  0  0  0  0  0  0  0
   17.2476   27.0050   32.4204 H   0  0  0  0  0  0  0  0  0  0  0  0
   18.7625   27.6798   33.1214 H   0  0  0  0  0  0  0  0  0  0  0  0
   17.2197   27.7560   34.0560 H   0  0  0  0  0  0  0  0  0  0  0  0
  1  2  1  0
  2  3  2  0
  2  4  1  0
  4  5  2  0
  5  6  1  0
  6  7  2  0
  7  8  1  0
  8  9  2  0
  9 10  1  0
 10 11  2  0
 11 12  1  0
 12 13  2  0
 13 14  1  0
  1 15  1  0
 15 16  2  0
 16 17  1  0
 17 18  2  0
 18 19  1  0
 19 20  1  0
 20 21  1  0
 21 22  1  0
 22 23  1  0
 23 24  1  0
 24 25  1  0
 24 26  1  0
 20 27  1  0
 27 28  2  0
 13  4  1  0
 27 15  1  0
 12  7  1  0
 23 18  1  0
  1 29  1  0
  8 30  1  0
  9 31  1  0
 10 32  1  0
 11 33  1  0
 14 34  1  0
 14 35  1  0
 17 36  1  0
 19 37  1  0
 19 38  1  0
 21 39  1  0
 21 40  1  0
 22 41  1  0
 22 42  1  0
 24 43  1  0
 25 44  1  0
 25 45  1  0
 25 46  1  0
 26 47  1  0
 26 48  1  0
 26 49  1  0
M  END
$$$$
confid_2
     RDKit          3D

 49 52  0  0  0  0  0  0  0  0999 V2000
   24.5700   26.8800   35.5900 N   0  0  0  0  0  0  0  0  0  0  0  0
   25.5000   26.4000   34.6900 C   0  0  0  0  0  0  0  0  0  0  0  0
   25.1700   25.5200   33.9100 O   0  0  0  0  0  0  0  0  0  0  0  0
   26.8400   27.0200   34.7400 C   0  0  0  0  0  0  0  0  0  0  0  0
   27.3800   27.2800   35.9400 N   0  0  0  0  0  0  0  0  0  0  0  0
   28.6200   27.7400   36.0300 N   0  0  0  0  0  0  0  0  0  0  0  0
   29.3800   28.0000   34.9600 C   0  0  0  0  0  0  0  0  0  0  0  0
   30.6700   28.5000   35.1300 C   0  0  0  0  0  0  0  0  0  0  0  0
   31.5400   28.6100   34.0300 C   0  0  0  0  0  0  0  0  0  0  0  0
   31.0900   28.2200   32.7700 C   0  0  0  0  0  0  0  0  0  0  0  0
   29.8000   27.7000   32.6000 C   0  0  0  0  0  0  0  0  0  0  0  0
   28.9600   27.5500   33.7100 C   0  0  0  0  0  0  0  0  0  0  0  0
   27.6600   27.0300   33.5900 C   0  0  0  0  0  0  0  0  0  0  0  0
   27.1600   26.7400   32.3400 N   0  0  0  0  0  0  0  0  0  0  0  0
   23.1630   26.5507   35.5952 C   0  0  0  0  0  0  0  0  0  0  0  0
   22.6496   25.8832   34.5845 N   0  0  0  0  0  0  0  0  0  0  0  0
   21.2747   25.5006   34.3562 C   0  0  0  0  0  0  0  0  0  0  0  0
   20.4388   25.1513   35.3492 C   0  0  0  0  0  0  0  0  0  0  0  0
   20.9977   25.0104   36.7115 C   0  0  0  0  0  0  0  0  0  0  0  0
   21.1204   26.3912   37.1395 N   0  0  0  0  0  0  0  0  0  0  0  0
   19.8654   27.1771   37.2186 C   0  0  0  0  0  0  0  0  0  0  0  0
   18.6652   26.4660   36.5077 C   0  0  0  0  0  0  0  0  0  0  0  0
   19.0974   25.6749   35.3270 N   0  0  0  0  0  0  0  0  0  0  0  0
   18.1927   25.4031   34.1949 C   0  0  0  0  0  0  0  0  0  0  0  0
   17.9289   26.6809   33.3897 C   0  0  0  0  0  0  0  0  0  0  0  0
   16.8819   24.7748   34.6811 C   0  0  0  0  0  0  0  0  0  0  0  0
   22.3230   27.0670   36.7276 C   0  0  0  0  0  0  0  0  0  0  0  0
   22.6773   28.1132   37.3356 O   0  0  0  0  0  0  0  0  0  0  0  0
   24.8966   27.5460   36.3268 H   0  0  0  0  0  0  0  0  0  0  0  0
   31.0179   28.7883   36.1144 H   0  0  0  0  0  0  0  0  0  0  0  0
   32.5424   28.9968   34.1597 H   0  0  0  0  0  0  0  0  0  0  0  0
   31.7487   28.3095   31.9157 H   0  0  0  0  0  0  0  0  0  0  0  0
   29.5077   27.3814   31.6086 H   0  0  0  0  0  0  0  0  0  0  0  0
   26.7446   25.8077   32.1268 H   0  0  0  0  0  0  0  0  0  0  0  0
   27.2452   27.4249   31.5562 H   0  0  0  0  0  0  0  0  0  0  0  0
   20.8768   25.6714   33.3650 H   0  0  0  0  0  0  0  0  0  0  0  0
   21.9693   24.4670   36.7338 H   0  0  0  0  0  0  0  0  0  0  0  0
   20.2943   24.4588   37.3731 H   0  0  0  0  0  0  0  0  0  0  0  0
   20.0069   28.1661   36.7278 H   0  0  0  0  0  0  0  0  0  0  0  0
   19.6155   27.3640   38.2842 H   0  0  0  0  0  0  0  0  0  0  0  0
   17.9126   27.2291   36.2181 H   0  0  0  0  0  0  0  0  0  0  0  0
   18.1781   25.7792   37.2335 H   0  0  0  0  0  0  0  0  0  0  0  0
   18.6689   24.6664   33.5095 H   0  0  0  0  0  0  0  0  0  0  0  0
   18.8903   27.1536   33.0964 H   0  0  0  0  0  0  0  0  0  0  0  0
   17.3639   26.4357   32.4648 H   0  0  0  0  0  0  0  0  0  0  0  0
   17.3382   27.4133   33.9778 H   0  0  0  0  0  0  0  0  0  0  0  0
   16.3029   25.4908   35.3019 H   0  0  0  0  0  0  0  0  0  0  0  0
   17.0990   23.8687   35.2861 H   0  0  0  0  0  0  0  0  0  0  0  0
   16.2583   24.4750   33.8115 H   0  0  0  0  0  0  0  0  0  0  0  0
  1  2  1  0
  2  3  2  0
  2  4  1  0
  4  5  2  0
  5  6  1  0
  6  7  2  0
  7  8  1  0
  8  9  2  0
  9 10  1  0
 10 11  2  0
 11 12  1  0
 12 13  2  0
 13 14  1  0
  1 15  1  0
 15 16  2  0
 16 17  1  0
 17 18  2  0
 18 19  1  0
 19 20  1  0
 20 21  1  0
 21 22  1  0
 22 23  1  0
 23 24  1  0
 24 25  1  0
 24 26  1  0
 20 27  1  0
 27 28  2  0
 13  4  1  0
 27 15  1  0
 12  7  1  0
 23 18  1  0
  1 29  1  0
  8 30  1  0
  9 31  1  0
 10 32  1  0
 11 33  1  0
 14 34  1  0
 14 35  1  0
 17 36  1  0
 19 37  1  0
 19 38  1  0
 21 39  1  0
 21 40  1  0
 22 41  1  0
 22 42  1  0
 24 43  1  0
 25 44  1  0
 25 45  1  0
 25 46  1  0
 26 47  1  0
 26 48  1  0
 26 49  1  0
M  END
$$$$
confid_3
     RDKit          3D

 49 52  0  0  0  0  0  0  0  0999 V2000
   24.5700   26.8800   35.5900 N   0  0  0  0  0  0  0  0  0  0  0  0
   25.5000   26.4000   34.6900 C   0  0  0  0  0  0  0  0  0  0  0  0
   25.1700   25.5200   33.9100 O   0  0  0  0  0  0  0  0  0  0  0  0
   26.8400   27.0200   34.7400 C   0  0  0  0  0  0  0  0  0  0  0  0
   27.3800   27.2800   35.9400 N   0  0  0  0  0  0  0  0  0  0  0  0
   28.6200   27.7400   36.0300 N   0  0  0  0  0  0  0  0  0  0  0  0
   29.3800   28.0000   34.9600 C   0  0  0  0  0  0  0  0  0  0  0  0
   30.6700   28.5000   35.1300 C   0  0  0  0  0  0  0  0  0  0  0  0
   31.5400   28.6100   34.0300 C   0  0  0  0  0  0  0  0  0  0  0  0
   31.0900   28.2200   32.7700 C   0  0  0  0  0  0  0  0  0  0  0  0
   29.8000   27.7000   32.6000 C   0  0  0  0  0  0  0  0  0  0  0  0
   28.9600   27.5500   33.7100 C   0  0  0  0  0  0  0  0  0  0  0  0
   27.6600   27.0300   33.5900 C   0  0  0  0  0  0  0  0  0  0  0  0
   27.1600   26.7400   32.3400 N   0  0  0  0  0  0  0  0  0  0  0  0
   23.1681   26.5324   35.6023 C   0  0  0  0  0  0  0  0  0  0  0  0
   22.6435   25.9249   34.5604 N   0  0  0  0  0  0  0  0  0  0  0  0
   21.2703   25.5343   34.3367 C   0  0  0  0  0  0  0  0  0  0  0  0
   20.4640   25.1034   35.3216 C   0  0  0  0  0  0  0  0  0  0  0  0
   21.0553   24.8848   36.6594 C   0  0  0  0  0  0  0  0  0  0  0  0
   21.1628   26.2367   37.1739 N   0  0  0  0  0  0  0  0  0  0  0  0
   19.8960   26.9912   37.3308 C   0  0  0  0  0  0  0  0  0  0  0  0
   18.6933   26.3051   36.5999 C   0  0  0  0  0  0  0  0  0  0  0  0
   19.1133   25.5998   35.3622 N   0  0  0  0  0  0  0  0  0  0  0  0
   18.1836   25.3654   34.2428 C   0  0  0  0  0  0  0  0  0  0  0  0
   16.9090   24.6659   34.7270 C   0  0  0  0  0  0  0  0  0  0  0  0
   17.8571   26.6782   33.5223 C   0  0  0  0  0  0  0  0  0  0  0  0
   22.3448   26.9597   36.7827 C   0  0  0  0  0  0  0  0  0  0  0  0
   22.6970   27.9675   37.4524 O   0  0  0  0  0  0  0  0  0  0  0  0
   24.8948   27.5436   36.3292 H   0  0  0  0  0  0  0  0  0  0  0  0
   31.0179   28.7884   36.1144 H   0  0  0  0  0  0  0  0  0  0  0  0
   32.5424   28.9969   34.1597 H   0  0  0  0  0  0  0  0  0  0  0  0
   31.7487   28.3095   31.9157 H   0  0  0  0  0  0  0  0  0  0  0  0
   29.5077   27.3814   31.6085 H   0  0  0  0  0  0  0  0  0  0  0  0
   27.2454   27.4248   31.5561 H   0  0  0  0  0  0  0  0  0  0  0  0
   26.7445   25.8077   32.1268 H   0  0  0  0  0  0  0  0  0  0  0  0
   20.8473   25.7605   33.3673 H   0  0  0  0  0  0  0  0  0  0  0  0
   22.0366   24.3598   36.6256 H   0  0  0  0  0  0  0  0  0  0  0  0
   20.3767   24.2780   37.2978 H   0  0  0  0  0  0  0  0  0  0  0  0
   20.0087   28.0125   36.9039 H   0  0  0  0  0  0  0  0  0  0  0  0
   19.6665   27.1030   38.4114 H   0  0  0  0  0  0  0  0  0  0  0  0
   17.9224   27.0710   36.3753 H   0  0  0  0  0  0  0  0  0  0  0  0
   18.2332   25.5648   37.2893 H   0  0  0  0  0  0  0  0  0  0  0  0
   18.6618   24.6866   33.5013 H   0  0  0  0  0  0  0  0  0  0  0  0
   16.3304   25.3199   35.4129 H   0  0  0  0  0  0  0  0  0  0  0  0
   17.1739   23.7294   35.2623 H   0  0  0  0  0  0  0  0  0  0  0  0
   16.2656   24.4042   33.8599 H   0  0  0  0  0  0  0  0  0  0  0  0
   17.2710   26.4691   32.6020 H   0  0  0  0  0  0  0  0  0  0  0  0
   18.7956   27.1947   33.2293 H   0  0  0  0  0  0  0  0  0  0  0  0
   17.2633   27.3569   34.1694 H   0  0  0  0  0  0  0  0  0  0  0  0
  1  2  1  0
  2  3  2  0
  2  4  1  0
  4  5  2  0
  5  6  1  0
  6  7  2  0
  7  8  1  0
  8  9  2  0
  9 10  1  0
 10 11  2  0
 11 12  1  0
 12 13  2  0
 13 14  1  0
  1 15  1  0
 15 16  2  0
 16 17  1  0
 17 18  2  0
 18 19  1  0
 19 20  1  0
 20 21  1  0
 21 22  1  0
 22 23  1  0
 23 24  1  0
 24 25  1  0
 24 26  1  0
 20 27  1  0
 27 28  2  0
 13  4  1  0
 27 15  1  0
 12  7  1  0
 23 18  1  0
  1 29  1  0
  8 30  1  0
  9 31  1  0
 10 32  1  0
 11 33  1  0
 14 34  1  0
 14 35  1  0
 17 36  1  0
 19 37  1  0
 19 38  1  0
 21 39  1  0
 21 40  1  0
 22 41  1  0
 22 42  1  0
 24 43  1  0
 25 44  1  0
 25 45  1  0
 25 46  1  0
 26 47  1  0
 26 48  1  0
 26 49  1  0
M  END
$$$$
confid_4
     RDKit          3D

 49 52  0  0  0  0  0  0  0  0999 V2000
   24.5700   26.8800   35.5900 N   0  0  0  0  0  0  0  0  0  0  0  0
   25.5000   26.4000   34.6900 C   0  0  0  0  0  0  0  0  0  0  0  0
   25.1700   25.5200   33.9100 O   0  0  0  0  0  0  0  0  0  0  0  0
   26.8400   27.0200   34.7400 C   0  0  0  0  0  0  0  0  0  0  0  0
   27.3800   27.2800   35.9400 N   0  0  0  0  0  0  0  0  0  0  0  0
   28.6200   27.7400   36.0300 N   0  0  0  0  0  0  0  0  0  0  0  0
   29.3800   28.0000   34.9600 C   0  0  0  0  0  0  0  0  0  0  0  0
   30.6700   28.5000   35.1300 C   0  0  0  0  0  0  0  0  0  0  0  0
   31.5400   28.6100   34.0300 C   0  0  0  0  0  0  0  0  0  0  0  0
   31.0900   28.2200   32.7700 C   0  0  0  0  0  0  0  0  0  0  0  0
   29.8000   27.7000   32.6000 C   0  0  0  0  0  0  0  0  0  0  0  0
   28.9600   27.5500   33.7100 C   0  0  0  0  0  0  0  0  0  0  0  0
   27.6600   27.0300   33.5900 C   0  0  0  0  0  0  0  0  0  0  0  0
   27.1600   26.7400   32.3400 N   0  0  0  0  0  0  0  0  0  0  0  0
   23.1849   26.4971   35.5621 C   0  0  0  0  0  0  0  0  0  0  0  0
   22.5653   26.4491   34.4034 N   0  0  0  0  0  0  0  0  0  0  0  0
   21.1716   26.1645   34.1451 C   0  0  0  0  0  0  0  0  0  0  0  0
   20.4635   25.2780   34.8663 C   0  0  0  0  0  0  0  0  0  0  0  0
   21.1871   24.4586   35.8627 C   0  0  0  0  0  0  0  0  0  0  0  0
   21.3514   25.3882   36.9647 N   0  0  0  0  0  0  0  0  0  0  0  0
   20.1092   25.8992   37.5917 C   0  0  0  0  0  0  0  0  0  0  0  0
   18.8384   25.5979   36.7291 C   0  0  0  0  0  0  0  0  0  0  0  0
   19.1285   25.6364   35.2729 N   0  0  0  0  0  0  0  0  0  0  0  0
   18.0898   25.9557   34.2781 C   0  0  0  0  0  0  0  0  0  0  0  0
   16.8875   25.0183   34.4250 C   0  0  0  0  0  0  0  0  0  0  0  0
   17.6657   27.4234   34.3876 C   0  0  0  0  0  0  0  0  0  0  0  0
   22.4836   26.2732   36.8669 C   0  0  0  0  0  0  0  0  0  0  0  0
   22.9001   26.8573   37.9030 O   0  0  0  0  0  0  0  0  0  0  0  0
   24.8882   27.4707   36.3908 H   0  0  0  0  0  0  0  0  0  0  0  0
   31.0179   28.7881   36.1143 H   0  0  0  0  0  0  0  0  0  0  0  0
   32.5423   28.9968   34.1602 H   0  0  0  0  0  0  0  0  0  0  0  0
   31.7486   28.3097   31.9157 H   0  0  0  0  0  0  0  0  0  0  0  0
   29.5071   27.3815   31.6088 H   0  0  0  0  0  0  0  0  0  0  0  0
   27.2442   27.4256   31.5567 H   0  0  0  0  0  0  0  0  0  0  0  0
   26.7449   25.8076   32.1261 H   0  0  0  0  0  0  0  0  0  0  0  0
   20.6534   26.8268   33.4645 H   0  0  0  0  0  0  0  0  0  0  0  0
   20.5742   23.5860   36.1771 H   0  0  0  0  0  0  0  0  0  0  0  0
   22.1573   24.0621   35.4867 H   0  0  0  0  0  0  0  0  0  0  0  0
   20.1744   27.0027   37.7190 H   0  0  0  0  0  0  0  0  0  0  0  0
   19.9951   25.4494   38.6007 H   0  0  0  0  0  0  0  0  0  0  0  0
   18.0404   26.3207   36.9954 H   0  0  0  0  0  0  0  0  0  0  0  0
   18.4649   24.5838   36.9885 H   0  0  0  0  0  0  0  0  0  0  0  0
   18.4965   25.8006   33.2535 H   0  0  0  0  0  0  0  0  0  0  0  0
   17.2234   23.9630   34.3451 H   0  0  0  0  0  0  0  0  0  0  0  0
   16.1512   25.2136   33.6164 H   0  0  0  0  0  0  0  0  0  0  0  0
   16.3865   25.1637   35.4052 H   0  0  0  0  0  0  0  0  0  0  0  0
   18.5604   28.0796   34.3481 H   0  0  0  0  0  0  0  0  0  0  0  0
   16.9993   27.6897   33.5403 H   0  0  0  0  0  0  0  0  0  0  0  0
   17.1208   27.6180   35.3343 H   0  0  0  0  0  0  0  0  0  0  0  0
  1  2  1  0
  2  3  2  0
  2  4  1  0
  4  5  2  0
  5  6  1  0
  6  7  2  0
  7  8  1  0
  8  9  2  0
  9 10  1  0
 10 11  2  0
 11 12  1  0
 12 13  2  0
 13 14  1  0
  1 15  1  0
 15 16  2  0
 16 17  1  0
 17 18  2  0
 18 19  1  0
 19 20  1  0
 20 21  1  0
 21 22  1  0
 22 23  1  0
 23 24  1  0
 24 25  1  0
 24 26  1  0
 20 27  1  0
 27 28  2  0
 13  4  1  0
 27 15  1  0
 12  7  1  0
 23 18  1  0
  1 29  1  0
  8 30  1  0
  9 31  1  0
 10 32  1  0
 11 33  1  0
 14 34  1  0
 14 35  1  0
 17 36  1  0
 19 37  1  0
 19 38  1  0
 21 39  1  0
 21 40  1  0
 22 41  1  0
 22 42  1  0
 24 43  1  0
 25 44  1  0
 25 45  1  0
 25 46  1  0
 26 47  1  0
 26 48  1  0
 26 49  1  0
M  END
$$$$
confid_5
     RDKit          3D

 49 52  0  0  0  0  0  0  0  0999 V2000
   24.5700   26.8800   35.5900 N   0  0  0  0  0  0  0  0  0  0  0  0
   25.5000   26.4000   34.6900 C   0  0  0  0  0  0  0  0  0  0  0  0
   25.1700   25.5200   33.9100 O   0  0  0  0  0  0  0  0  0  0  0  0
   26.8400   27.0200   34.7400 C   0  0  0  0  0  0  0  0  0  0  0  0
   27.3800   27.2800   35.9400 N   0  0  0  0  0  0  0  0  0  0  0  0
   28.6200   27.7400   36.0300 N   0  0  0  0  0  0  0  0  0  0  0  0
   29.3800   28.0000   34.9600 C   0  0  0  0  0  0  0  0  0  0  0  0
   30.6700   28.5000   35.1300 C   0  0  0  0  0  0  0  0  0  0  0  0
   31.5400   28.6100   34.0300 C   0  0  0  0  0  0  0  0  0  0  0  0
   31.0900   28.2200   32.7700 C   0  0  0  0  0  0  0  0  0  0  0  0
   29.8000   27.7000   32.6000 C   0  0  0  0  0  0  0  0  0  0  0  0
   28.9600   27.5500   33.7100 C   0  0  0  0  0  0  0  0  0  0  0  0
   27.6600   27.0300   33.5900 C   0  0  0  0  0  0  0  0  0  0  0  0
   27.1600   26.7400   32.3400 N   0  0  0  0  0  0  0  0  0  0  0  0
   23.3055   26.2537   35.8967 C   0  0  0  0  0  0  0  0  0  0  0  0
   23.0375   25.0625   35.4081 N   0  0  0  0  0  0  0  0  0  0  0  0
   21.8686   24.2397   35.6196 C   0  0  0  0  0  0  0  0  0  0  0  0
   20.6323   24.7486   35.7581 C   0  0  0  0  0  0  0  0  0  0  0  0
   20.4483   26.1996   35.5407 C   0  0  0  0  0  0  0  0  0  0  0  0
   20.9517   26.7635   36.7784 N   0  0  0  0  0  0  0  0  0  0  0  0
   20.2464   26.3726   38.0231 C   0  0  0  0  0  0  0  0  0  0  0  0
   19.2805   25.1582   37.8120 C   0  0  0  0  0  0  0  0  0  0  0  0
   19.7844   24.2078   36.7880 N   0  0  0  0  0  0  0  0  0  0  0  0
   19.4063   22.7833   36.7896 C   0  0  0  0  0  0  0  0  0  0  0  0
   17.8833   22.6199   36.8291 C   0  0  0  0  0  0  0  0  0  0  0  0
   20.0723   22.0434   37.9551 C   0  0  0  0  0  0  0  0  0  0  0  0
   22.3760   26.9653   36.8356 C   0  0  0  0  0  0  0  0  0  0  0  0
   22.8494   27.7581   37.6936 O   0  0  0  0  0  0  0  0  0  0  0  0
   24.7860   27.7802   36.0767 H   0  0  0  0  0  0  0  0  0  0  0  0
   31.0178   28.7888   36.1143 H   0  0  0  0  0  0  0  0  0  0  0  0
   32.5416   28.9991   34.1593 H   0  0  0  0  0  0  0  0  0  0  0  0
   31.7454   28.3188   31.9142 H   0  0  0  0  0  0  0  0  0  0  0  0
   29.5011   27.4244   31.5992 H   0  0  0  0  0  0  0  0  0  0  0  0
   27.7095   26.1823   31.6499 H   0  0  0  0  0  0  0  0  0  0  0  0
   26.1713   26.9663   32.0917 H   0  0  0  0  0  0  0  0  0  0  0  0
   22.0375   23.1936   35.8356 H   0  0  0  0  0  0  0  0  0  0  0  0
   20.9883   26.5814   34.6446 H   0  0  0  0  0  0  0  0  0  0  0  0
   19.3725   26.4468   35.4097 H   0  0  0  0  0  0  0  0  0  0  0  0
   19.6780   27.2435   38.4123 H   0  0  0  0  0  0  0  0  0  0  0  0
   20.9868   26.0796   38.8005 H   0  0  0  0  0  0  0  0  0  0  0  0
   19.1272   24.6451   38.7841 H   0  0  0  0  0  0  0  0  0  0  0  0
   18.2920   25.5434   37.4803 H   0  0  0  0  0  0  0  0  0  0  0  0
   19.7577   22.3074   35.8464 H   0  0  0  0  0  0  0  0  0  0  0  0
   17.4676   22.9841   37.7926 H   0  0  0  0  0  0  0  0  0  0  0  0
   17.6134   21.5488   36.7090 H   0  0  0  0  0  0  0  0  0  0  0  0
   17.4204   23.1943   35.9984 H   0  0  0  0  0  0  0  0  0  0  0  0
   19.6751   22.3886   38.9327 H   0  0  0  0  0  0  0  0  0  0  0  0
   19.8859   20.9516   37.8655 H   0  0  0  0  0  0  0  0  0  0  0  0
   21.1693   22.2109   37.9376 H   0  0  0  0  0  0  0  0  0  0  0  0
  1  2  1  0
  2  3  2  0
  2  4  1  0
  4  5  2  0
  5  6  1  0
  6  7  2  0
  7  8  1  0
  8  9  2  0
  9 10  1  0
 10 11  2  0
 11 12  1  0
 12 13  2  0
 13 14  1  0
  1 15  1  0
 15 16  2  0
 16 17  1  0
 17 18  2  0
 18 19  1  0
 19 20  1  0
 20 21  1  0
 21 22  1  0
 22 23  1  0
 23 24  1  0
 24 25  1  0
 24 26  1  0
 20 27  1  0
 27 28  2  0
 13  4  1  0
 27 15  1  0
 12  7  1  0
 23 18  1  0
  1 29  1  0
  8 30  1  0
  9 31  1  0
 10 32  1  0
 11 33  1  0
 14 34  1  0
 14 35  1  0
 17 36  1  0
 19 37  1  0
 19 38  1  0
 21 39  1  0
 21 40  1  0
 22 41  1  0
 22 42  1  0
 24 43  1  0
 25 44  1  0
 25 45  1  0
 25 46  1  0
 26 47  1  0
 26 48  1  0
 26 49  1  0
M  END
$$$$
confid_6
     RDKit          3D

 49 52  0  0  0  0  0  0  0  0999 V2000
   24.5700   26.8800   35.5900 N   0  0  0  0  0  0  0  0  0  0  0  0
   25.5000   26.4000   34.6900 C   0  0  0  0  0  0  0  0  0  0  0  0
   25.1700   25.5200   33.9100 O   0  0  0  0  0  0  0  0  0  0  0  0
   26.8400   27.0200   34.7400 C   0  0  0  0  0  0  0  0  0  0  0  0
   27.3800   27.2800   35.9400 N   0  0  0  0  0  0  0  0  0  0  0  0
   28.6200   27.7400   36.0300 N   0  0  0  0  0  0  0  0  0  0  0  0
   29.3800   28.0000   34.9600 C   0  0  0  0  0  0  0  0  0  0  0  0
   30.6700   28.5000   35.1300 C   0  0  0  0  0  0  0  0  0  0  0  0
   31.5400   28.6100   34.0300 C   0  0  0  0  0  0  0  0  0  0  0  0
   31.0900   28.2200   32.7700 C   0  0  0  0  0  0  0  0  0  0  0  0
   29.8000   27.7000   32.6000 C   0  0  0  0  0  0  0  0  0  0  0  0
   28.9600   27.5500   33.7100 C   0  0  0  0  0  0  0  0  0  0  0  0
   27.6600   27.0300   33.5900 C   0  0  0  0  0  0  0  0  0  0  0  0
   27.1600   26.7400   32.3400 N   0  0  0  0  0  0  0  0  0  0  0  0
   23.1919   26.4791   35.5939 C   0  0  0  0  0  0  0  0  0  0  0  0
   22.8979   25.2008   35.5186 N   0  0  0  0  0  0  0  0  0  0  0  0
   21.5982   24.5666   35.4685 C   0  0  0  0  0  0  0  0  0  0  0  0
   20.5224   25.0182   36.1397 C   0  0  0  0  0  0  0  0  0  0  0  0
   20.6922   26.1880   37.0251 C   0  0  0  0  0  0  0  0  0  0  0  0
   20.8196   27.2849   36.0822 N   0  0  0  0  0  0  0  0  0  0  0  0
   19.7207   27.4800   35.1049 C   0  0  0  0  0  0  0  0  0  0  0  0
   18.6619   26.3285   35.1455 C   0  0  0  0  0  0  0  0  0  0  0  0
   19.2515   25.0055   35.4667 N   0  0  0  0  0  0  0  0  0  0  0  0
   18.3478   23.8453   35.5655 C   0  0  0  0  0  0  0  0  0  0  0  0
   17.9368   23.6045   37.0241 C   0  0  0  0  0  0  0  0  0  0  0  0
   18.9717   22.5861   34.9557 C   0  0  0  0  0  0  0  0  0  0  0  0
   22.1575   27.5569   35.6430 C   0  0  0  0  0  0  0  0  0  0  0  0
   22.4666   28.7304   35.3028 O   0  0  0  0  0  0  0  0  0  0  0  0
   24.8112   27.7267   36.1552 H   0  0  0  0  0  0  0  0  0  0  0  0
   31.0180   28.7882   36.1144 H   0  0  0  0  0  0  0  0  0  0  0  0
   32.5424   28.9970   34.1598 H   0  0  0  0  0  0  0  0  0  0  0  0
   31.7485   28.3099   31.9157 H   0  0  0  0  0  0  0  0  0  0  0  0
   29.5077   27.3818   31.6085 H   0  0  0  0  0  0  0  0  0  0  0  0
   27.2424   27.4265   31.5575 H   0  0  0  0  0  0  0  0  0  0  0  0
   26.7428   25.8086   32.1271 H   0  0  0  0  0  0  0  0  0  0  0  0
   21.4680   23.7884   34.7291 H   0  0  0  0  0  0  0  0  0  0  0  0
   21.5725   26.0945   37.6993 H   0  0  0  0  0  0  0  0  0  0  0  0
   19.7944   26.3317   37.6655 H   0  0  0  0  0  0  0  0  0  0  0  0
   20.1375   27.5110   34.0740 H   0  0  0  0  0  0  0  0  0  0  0  0
   19.2255   28.4550   35.2981 H   0  0  0  0  0  0  0  0  0  0  0  0
   18.1354   26.2754   34.1702 H   0  0  0  0  0  0  0  0  0  0  0  0
   17.9081   26.5809   35.9218 H   0  0  0  0  0  0  0  0  0  0  0  0
   17.4184   24.0593   34.9868 H   0  0  0  0  0  0  0  0  0  0  0  0
   18.8125   23.3000   37.6400 H   0  0  0  0  0  0  0  0  0  0  0  0
   17.5042   24.5326   37.4525 H   0  0  0  0  0  0  0  0  0  0  0  0
   17.1656   22.8064   37.0729 H   0  0  0  0  0  0  0  0  0  0  0  0
   19.8353   22.2393   35.5627 H   0  0  0  0  0  0  0  0  0  0  0  0
   19.3100   22.7901   33.9167 H   0  0  0  0  0  0  0  0  0  0  0  0
   18.2172   21.7706   34.9279 H   0  0  0  0  0  0  0  0  0  0  0  0
  1  2  1  0
  2  3  2  0
  2  4  1  0
  4  5  2  0
  5  6  1  0
  6  7  2  0
  7  8  1  0
  8  9  2  0
  9 10  1  0
 10 11  2  0
 11 12  1  0
 12 13  2  0
 13 14  1  0
  1 15  1  0
 15 16  2  0
 16 17  1  0
 17 18  2  0
 18 19  1  0
 19 20  1  0
 20 21  1  0
 21 22  1  0
 22 23  1  0
 23 24  1  0
 24 25  1  0
 24 26  1  0
 20 27  1  0
 27 28  2  0
 13  4  1  0
 27 15  1  0
 12  7  1  0
 23 18  1  0
  1 29  1  0
  8 30  1  0
  9 31  1  0
 10 32  1  0
 11 33  1  0
 14 34  1  0
 14 35  1  0
 17 36  1  0
 19 37  1  0
 19 38  1  0
 21 39  1  0
 21 40  1  0
 22 41  1  0
 22 42  1  0
 24 43  1  0
 25 44  1  0
 25 45  1  0
 25 46  1  0
 26 47  1  0
 26 48  1  0
 26 49  1  0
M  END
$$$$
confid_7
     RDKit          3D

 49 52  0  0  0  0  0  0  0  0999 V2000
   24.5700   26.8800   35.5900 N   0  0  0  0  0  0  0  0  0  0  0  0
   25.5000   26.4000   34.6900 C   0  0  0  0  0  0  0  0  0  0  0  0
   25.1700   25.5200   33.9100 O   0  0  0  0  0  0  0  0  0  0  0  0
   26.8400   27.0200   34.7400 C   0  0  0  0  0  0  0  0  0  0  0  0
   27.3800   27.2800   35.9400 N   0  0  0  0  0  0  0  0  0  0  0  0
   28.6200   27.7400   36.0300 N   0  0  0  0  0  0  0  0  0  0  0  0
   29.3800   28.0000   34.9600 C   0  0  0  0  0  0  0  0  0  0  0  0
   30.6700   28.5000   35.1300 C   0  0  0  0  0  0  0  0  0  0  0  0
   31.5400   28.6100   34.0300 C   0  0  0  0  0  0  0  0  0  0  0  0
   31.0900   28.2200   32.7700 C   0  0  0  0  0  0  0  0  0  0  0  0
   29.8000   27.7000   32.6000 C   0  0  0  0  0  0  0  0  0  0  0  0
   28.9600   27.5500   33.7100 C   0  0  0  0  0  0  0  0  0  0  0  0
   27.6600   27.0300   33.5900 C   0  0  0  0  0  0  0  0  0  0  0  0
   27.1600   26.7400   32.3400 N   0  0  0  0  0  0  0  0  0  0  0  0
   23.1641   26.5524   35.5846 C   0  0  0  0  0  0  0  0  0  0  0  0
   22.6316   26.0038   34.5157 N   0  0  0  0  0  0  0  0  0  0  0  0
   21.2484   25.6601   34.2881 C   0  0  0  0  0  0  0  0  0  0  0  0
   20.4457   25.2034   35.2604 C   0  0  0  0  0  0  0  0  0  0  0  0
   21.0468   24.8595   36.5688 C   0  0  0  0  0  0  0  0  0  0  0  0
   21.2138   26.1535   37.2034 N   0  0  0  0  0  0  0  0  0  0  0  0
   19.9455   26.8218   37.5449 C   0  0  0  0  0  0  0  0  0  0  0  0
   19.0549   26.9808   36.2785 C   0  0  0  0  0  0  0  0  0  0  0  0
   19.1513   25.8079   35.3761 N   0  0  0  0  0  0  0  0  0  0  0  0
   18.0390   25.3562   34.5269 C   0  0  0  0  0  0  0  0  0  0  0  0
   17.5169   26.5004   33.6525 C   0  0  0  0  0  0  0  0  0  0  0  0
   16.9213   24.7523   35.3810 C   0  0  0  0  0  0  0  0  0  0  0  0
   22.3440   26.9411   36.7785 C   0  0  0  0  0  0  0  0  0  0  0  0
   22.6677   27.9625   37.4426 O   0  0  0  0  0  0  0  0  0  0  0  0
   24.8971   27.5250   36.3445 H   0  0  0  0  0  0  0  0  0  0  0  0
   31.0180   28.7882   36.1144 H   0  0  0  0  0  0  0  0  0  0  0  0
   32.5425   28.9968   34.1597 H   0  0  0  0  0  0  0  0  0  0  0  0
   31.7487   28.3095   31.9158 H   0  0  0  0  0  0  0  0  0  0  0  0
   29.5078   27.3813   31.6086 H   0  0  0  0  0  0  0  0  0  0  0  0
   27.2459   27.4245   31.5559 H   0  0  0  0  0  0  0  0  0  0  0  0
   26.7448   25.8076   32.1269 H   0  0  0  0  0  0  0  0  0  0  0  0
   20.8051   25.9791   33.3536 H   0  0  0  0  0  0  0  0  0  0  0  0
   20.3489   24.2235   37.1564 H   0  0  0  0  0  0  0  0  0  0  0  0
   22.0096   24.3085   36.4765 H   0  0  0  0  0  0  0  0  0  0  0  0
   20.1302   27.8136   38.0106 H   0  0  0  0  0  0  0  0  0  0  0  0
   19.4006   26.2036   38.2904 H   0  0  0  0  0  0  0  0  0  0  0  0
   19.3968   27.8792   35.7213 H   0  0  0  0  0  0  0  0  0  0  0  0
   18.0049   27.1576   36.5906 H   0  0  0  0  0  0  0  0  0  0  0  0
   18.4002   24.5546   33.8436 H   0  0  0  0  0  0  0  0  0  0  0  0
   18.3485   26.9328   33.0583 H   0  0  0  0  0  0  0  0  0  0  0  0
   17.0653   27.3036   34.2727 H   0  0  0  0  0  0  0  0  0  0  0  0
   16.7469   26.1193   32.9486 H   0  0  0  0  0  0  0  0  0  0  0  0
   16.4548   25.5179   36.0342 H   0  0  0  0  0  0  0  0  0  0  0  0
   16.1337   24.3207   34.7274 H   0  0  0  0  0  0  0  0  0  0  0  0
   17.3305   23.9395   36.0169 H   0  0  0  0  0  0  0  0  0  0  0  0
  1  2  1  0
  2  3  2  0
  2  4  1  0
  4  5  2  0
  5  6  1  0
  6  7  2  0
  7  8  1  0
  8  9  2  0
  9 10  1  0
 10 11  2  0
 11 12  1  0
 12 13  2  0
 13 14  1  0
  1 15  1  0
 15 16  2  0
 16 17  1  0
 17 18  2  0
 18 19  1  0
 19 20  1  0
 20 21  1  0
 21 22  1  0
 22 23  1  0
 23 24  1  0
 24 25  1  0
 24 26  1  0
 20 27  1  0
 27 28  2  0
 13  4  1  0
 27 15  1  0
 12  7  1  0
 23 18  1  0
  1 29  1  0
  8 30  1  0
  9 31  1  0
 10 32  1  0
 11 33  1  0
 14 34  1  0
 14 35  1  0
 17 36  1  0
 19 37  1  0
 19 38  1  0
 21 39  1  0
 21 40  1  0
 22 41  1  0
 22 42  1  0
 24 43  1  0
 25 44  1  0
 25 45  1  0
 25 46  1  0
 26 47  1  0
 26 48  1  0
 26 49  1  0
M  END
$$$$
confid_8
     RDKit          3D

 49 52  0  0  0  0  0  0  0  0999 V2000
   24.5700   26.8800   35.5900 N   0  0  0  0  0  0  0  0  0  0  0  0
   25.5000   26.4000   34.6900 C   0  0  0  0  0  0  0  0  0  0  0  0
   25.1700   25.5200   33.9100 O   0  0  0  0  0  0  0  0  0  0  0  0
   26.8400   27.0200   34.7400 C   0  0  0  0  0  0  0  0  0  0  0  0
   27.3800   27.2800   35.9400 N   0  0  0  0  0  0  0  0  0  0  0  0
   28.6200   27.7400   36.0300 N   0  0  0  0  0  0  0  0  0  0  0  0
   29.3800   28.0000   34.9600 C   0  0  0  0  0  0  0  0  0  0  0  0
   30.6700   28.5000   35.1300 C   0  0  0  0  0  0  0  0  0  0  0  0
   31.5400   28.6100   34.0300 C   0  0  0  0  0  0  0  0  0  0  0  0
   31.0900   28.2200   32.7700 C   0  0  0  0  0  0  0  0  0  0  0  0
   29.8000   27.7000   32.6000 C   0  0  0  0  0  0  0  0  0  0  0  0
   28.9600   27.5500   33.7100 C   0  0  0  0  0  0  0  0  0  0  0  0
   27.6600   27.0300   33.5900 C   0  0  0  0  0  0  0  0  0  0  0  0
   27.1600   26.7400   32.3400 N   0  0  0  0  0  0  0  0  0  0  0  0
   23.1624   26.5632   35.5601 C   0  0  0  0  0  0  0  0  0  0  0  0
   22.6235   26.1287   34.4425 N   0  0  0  0  0  0  0  0  0  0  0  0
   21.2404   25.8069   34.1749 C   0  0  0  0  0  0  0  0  0  0  0  0
   20.4380   25.2062   35.0718 C   0  0  0  0  0  0  0  0  0  0  0  0
   21.0194   24.8190   36.3742 C   0  0  0  0  0  0  0  0  0  0  0  0
   21.1383   26.0964   37.0536 N   0  0  0  0  0  0  0  0  0  0  0  0
   19.8888   26.8697   37.2551 C   0  0  0  0  0  0  0  0  0  0  0  0
   18.6745   26.2924   36.4493 C   0  0  0  0  0  0  0  0  0  0  0  0
   19.0715   25.6474   35.1739 N   0  0  0  0  0  0  0  0  0  0  0  0
   18.0165   25.1359   34.2771 C   0  0  0  0  0  0  0  0  0  0  0  0
   18.0466   23.6043   34.2030 C   0  0  0  0  0  0  0  0  0  0  0  0
   18.1114   25.7605   32.8822 C   0  0  0  0  0  0  0  0  0  0  0  0
   22.3483   26.8288   36.7901 C   0  0  0  0  0  0  0  0  0  0  0  0
   22.7270   27.7068   37.6114 O   0  0  0  0  0  0  0  0  0  0  0  0
   24.8996   27.4961   36.3670 H   0  0  0  0  0  0  0  0  0  0  0  0
   31.0178   28.7888   36.1143 H   0  0  0  0  0  0  0  0  0  0  0  0
   32.5416   28.9992   34.1593 H   0  0  0  0  0  0  0  0  0  0  0  0
   31.7453   28.3188   31.9141 H   0  0  0  0  0  0  0  0  0  0  0  0
   29.5014   27.4245   31.5991 H   0  0  0  0  0  0  0  0  0  0  0  0
   27.7098   26.1837   31.6491 H   0  0  0  0  0  0  0  0  0  0  0  0
   26.1710   26.9653   32.0922 H   0  0  0  0  0  0  0  0  0  0  0  0
   20.8165   26.2128   33.2696 H   0  0  0  0  0  0  0  0  0  0  0  0
   20.3283   24.1474   36.9300 H   0  0  0  0  0  0  0  0  0  0  0  0
   21.9949   24.2902   36.2785 H   0  0  0  0  0  0  0  0  0  0  0  0
   20.0392   27.9214   36.9231 H   0  0  0  0  0  0  0  0  0  0  0  0
   19.6441   26.8944   38.3382 H   0  0  0  0  0  0  0  0  0  0  0  0
   17.9522   27.1119   36.2434 H   0  0  0  0  0  0  0  0  0  0  0  0
   18.1579   25.5376   37.0817 H   0  0  0  0  0  0  0  0  0  0  0  0
   17.0213   25.4205   34.6876 H   0  0  0  0  0  0  0  0  0  0  0  0
   18.9903   23.2490   33.7381 H   0  0  0  0  0  0  0  0  0  0  0  0
   17.9641   23.1755   35.2248 H   0  0  0  0  0  0  0  0  0  0  0  0
   17.1914   23.2353   33.5963 H   0  0  0  0  0  0  0  0  0  0  0  0
   18.2343   26.8613   32.9649 H   0  0  0  0  0  0  0  0  0  0  0  0
   17.1789   25.5544   32.3131 H   0  0  0  0  0  0  0  0  0  0  0  0
   18.9600   25.3355   32.3082 H   0  0  0  0  0  0  0  0  0  0  0  0
  1  2  1  0
  2  3  2  0
  2  4  1  0
  4  5  2  0
  5  6  1  0
  6  7  2  0
  7  8  1  0
  8  9  2  0
  9 10  1  0
 10 11  2  0
 11 12  1  0
 12 13  2  0
 13 14  1  0
  1 15  1  0
 15 16  2  0
 16 17  1  0
 17 18  2  0
 18 19  1  0
 19 20  1  0
 20 21  1  0
 21 22  1  0
 22 23  1  0
 23 24  1  0
 24 25  1  0
 24 26  1  0
 20 27  1  0
 27 28  2  0
 13  4  1  0
 27 15  1  0
 12  7  1  0
 23 18  1  0
  1 29  1  0
  8 30  1  0
  9 31  1  0
 10 32  1  0
 11 33  1  0
 14 34  1  0
 14 35  1  0
 17 36  1  0
 19 37  1  0
 19 38  1  0
 21 39  1  0
 21 40  1  0
 22 41  1  0
 22 42  1  0
 24 43  1  0
 25 44  1  0
 25 45  1  0
 25 46  1  0
 26 47  1  0
 26 48  1  0
 26 49  1  0
M  END
$$$$
