confid_0
     RDKit          3D

 49 52  0  0  0  0  0  0  0  0999 V2000
   24.5500   26.3900   36.2500 N   0  0  0  0  0  0  0  0  0  0  0  0
   25.6000   26.1300   35.4000 C   0  0  0  0  0  0  0  0  0  0  0  0
   25.4300   25.4300   34.4200 O   0  0  0  0  0  0  0  0  0  0  0  0
   26.9800   26.6300   35.7100 C   0  0  0  0  0  0  0  0  0  0  0  0
   27.3200   26.8200   36.9800 N   0  0  0  0  0  0  0  0  0  0  0  0
   28.4700   27.4000   37.3100 N   0  0  0  0  0  0  0  0  0  0  0  0
   29.4000   27.6300   36.3700 C   0  0  0  0  0  0  0  0  0  0  0  0
   30.6600   28.0500   36.8000 C   0  0  0  0  0  0  0  0  0  0  0  0
   31.5700   28.3600   35.7800 C   0  0  0  0  0  0  0  0  0  0  0  0
   31.3700   28.1000   34.4300 C   0  0  0  0  0  0  0  0  0  0  0  0
   30.1200   27.5900   34.0500 C   0  0  0  0  0  0  0  0  0  0  0  0
   29.1500   27.3400   35.0300 C   0  0  0  0  0  0  0  0  0  0  0  0
   27.8800   26.8900   34.6600 C   0  0  0  0  0  0  0  0  0  0  0  0
   27.4800   26.6100   33.3700 N   0  0  0  0  0  0  0  0  0  0  0  0
   30.9611   28.3367   38.1809 N   0  0  0  0  0  0  0  0  0  0  0  0
   30.3245   29.5074   38.7817 C   0  0  0  0  0  0  0  0  0  0  0  0
   31.3515   30.2695   39.5961 C   0  0  0  0  0  0  0  0  0  0  0  0
   31.9809   29.3706   40.6326 C   0  0  0  0  0  0  0  0  0  0  0  0
   32.4903   29.9113   41.8404 C   0  0  0  0  0  0  0  0  0  0  0  0
   33.0700   29.0488   42.7782 C   0  0  0  0  0  0  0  0  0  0  0  0
   33.1824   27.7254   42.5159 N   0  0  0  0  0  0  0  0  0  0  0  0
   32.7413   27.1832   41.3551 C   0  0  0  0  0  0  0  0  0  0  0  0
   32.1257   27.9826   40.3694 C   0  0  0  0  0  0  0  0  0  0  0  0
   31.6649   27.3489   39.0401 C   0  0  0  0  0  0  0  0  0  0  0  0
   30.6975   26.1800   39.3252 C   0  0  0  0  0  0  0  0  0  0  0  0
   32.9142   26.8131   38.3041 C   0  0  0  0  0  0  0  0  0  0  0  0
   32.4082   31.3827   42.1562 C   0  0  0  0  0  0  0  0  0  0  0  0
   23.5999   26.0045   36.0500 H   0  0  0  0  0  0  0  0  0  0  0  0
   24.6740   26.9934   37.0932 H   0  0  0  0  0  0  0  0  0  0  0  0
   32.5239   28.7846   36.0655 H   0  0  0  0  0  0  0  0  0  0  0  0
   32.1345   28.3176   33.6953 H   0  0  0  0  0  0  0  0  0  0  0  0
   29.9363   27.3928   33.0016 H   0  0  0  0  0  0  0  0  0  0  0  0
   27.4178   25.6173   33.0516 H   0  0  0  0  0  0  0  0  0  0  0  0
   27.5832   27.3391   32.6299 H   0  0  0  0  0  0  0  0  0  0  0  0
   29.4844   29.1819   39.4334 H   0  0  0  0  0  0  0  0  0  0  0  0
   29.9166   30.1846   37.9980 H   0  0  0  0  0  0  0  0  0  0  0  0
   32.1454   30.6621   38.9247 H   0  0  0  0  0  0  0  0  0  0  0  0
   30.8300   31.1289   40.0665 H   0  0  0  0  0  0  0  0  0  0  0  0
   33.4473   29.4293   43.7185 H   0  0  0  0  0  0  0  0  0  0  0  0
   32.8837   26.1231   41.2037 H   0  0  0  0  0  0  0  0  0  0  0  0
   30.3600   25.7134   38.3757 H   0  0  0  0  0  0  0  0  0  0  0  0
   31.1773   25.3796   39.9239 H   0  0  0  0  0  0  0  0  0  0  0  0
   29.8044   26.5471   39.8749 H   0  0  0  0  0  0  0  0  0  0  0  0
   32.6335   26.2916   37.3647 H   0  0  0  0  0  0  0  0  0  0  0  0
   33.6016   27.6501   38.0571 H   0  0  0  0  0  0  0  0  0  0  0  0
   33.4689   26.0793   38.9253 H   0  0  0  0  0  0  0  0  0  0  0  0
   32.7977   31.9786   41.3041 H   0  0  0  0  0  0  0  0  0  0  0  0
   33.0112   31.6433   43.0525 H   0  0  0  0  0  0  0  0  0  0  0  0
   31.3527   31.6632   42.3556 H   0  0  0  0  0  0  0  0  0  0  0  0
  1  2  1  0
  2  3  2  0
  2  4  1  0
  4  5  2  0
  5  6  1  0
  6  7  2  0
  7  8  1  0
  8  9  2  0
  9 10  1  0
 10 11  2  0
 11 12  1  0
 12 13  2  0
 13 14  1  0
  8 15  1  0
 15 16  1  0
 16 17  1  0
 17 18  1  0
 18 19  2  0
 19 20  1  0
 20 21  2  0
 21 22  1  0
 22 23  2  0
 23 24  1  0
 24 25  1  0
 24 26  1  0
 19 27  1  0
 13  4  1  0
 24 15  1  0
 12  7  1  0
 23 18  1  0
  1 28  1  0
  1 29  1  0
  9 30  1  0
 10 31  1  0
 11 32  1  0
 14 33  1  0
 14 34  1  0
 16 35  1  0
 16 36  1  0
 17 37  1  0
 17 38  1  0
 20 39  1  0
 22 40  1  0
 25 41  1  0
 25 42  1  0
 25 43  1  0
 26 44  1  0
 26 45  1  0
 26 46  1  0
 27 47  1  0
 27 48  1  0
 27 49  1  0
M  END
$$$$
confid_1
     RDKit          3D

 49 52  0  0  0  0  0  0  0  0999 V2000
   24.5500   26.3900   36.2500 N   0  0  0  0  0  0  0  0  0  0  0  0
   25.6000   26.1300   35.4000 C   0  0  0  0  0  0  0  0  0  0  0  0
   25.4300   25.4300   34.4200 O   0  0  0  0  0  0  0  0  0  0  0  0
   26.9800   26.6300   35.7100 C   0  0  0  0  0  0  0  0  0  0  0  0
   27.3200   26.8200   36.9800 N   0  0  0  0  0  0  0  0  0  0  0  0
   28.4700   27.4000   37.3100 N   0  0  0  0  0  0  0  0  0  0  0  0
   29.4000   27.6300   36.3700 C   0  0  0  0  0  0  0  0  0  0  0  0
   30.6600   28.0500   36.8000 C   0  0  0  0  0  0  0  0  0  0  0  0
   31.5700   28.3600   35.7800 C   0  0  0  0  0  0  0  0  0  0  0  0
   31.3700   28.1000   34.4300 C   0  0  0  0  0  0  0  0  0  0  0  0
   30.1200   27.5900   34.0500 C   0  0  0  0  0  0  0  0  0  0  0  0
   29.1500   27.3400   35.0300 C   0  0  0  0  0  0  0  0  0  0  0  0
   27.8800   26.8900   34.6600 C   0  0  0  0  0  0  0  0  0  0  0  0
   27.4800   26.6100   33.3700 N   0  0  0  0  0  0  0  0  0  0  0  0
   30.9689   28.2668   38.1910 N   0  0  0  0  0  0  0  0  0  0  0  0
   31.6259   27.1756   38.9047 C   0  0  0  0  0  0  0  0  0  0  0  0
   30.8922   26.9277   40.2088 C   0  0  0  0  0  0  0  0  0  0  0  0
   30.7803   28.1973   41.0206 C   0  0  0  0  0  0  0  0  0  0  0  0
   30.6205   28.1309   42.4277 C   0  0  0  0  0  0  0  0  0  0  0  0
   30.5266   29.3215   43.1573 C   0  0  0  0  0  0  0  0  0  0  0  0
   30.5454   30.5177   42.5239 N   0  0  0  0  0  0  0  0  0  0  0  0
   30.6535   30.6157   41.1769 C   0  0  0  0  0  0  0  0  0  0  0  0
   30.7630   29.4623   40.3725 C   0  0  0  0  0  0  0  0  0  0  0  0
   30.8521   29.5996   38.8382 C   0  0  0  0  0  0  0  0  0  0  0  0
   32.0939   30.4377   38.4673 C   0  0  0  0  0  0  0  0  0  0  0  0
   29.5788   30.3230   38.3364 C   0  0  0  0  0  0  0  0  0  0  0  0
   30.5784   26.8182   43.1673 C   0  0  0  0  0  0  0  0  0  0  0  0
   24.6740   26.9932   37.0933 H   0  0  0  0  0  0  0  0  0  0  0  0
   23.6001   26.0040   36.0503 H   0  0  0  0  0  0  0  0  0  0  0  0
   32.5433   28.7361   36.0653 H   0  0  0  0  0  0  0  0  0  0  0  0
   32.1369   28.3119   33.6961 H   0  0  0  0  0  0  0  0  0  0  0  0
   29.9380   27.4161   32.9985 H   0  0  0  0  0  0  0  0  0  0  0  0
   26.5962   27.0150   32.9873 H   0  0  0  0  0  0  0  0  0  0  0  0
   28.1242   26.1385   32.6979 H   0  0  0  0  0  0  0  0  0  0  0  0
   31.6153   26.2391   38.3029 H   0  0  0  0  0  0  0  0  0  0  0  0
   32.6860   27.4437   39.1052 H   0  0  0  0  0  0  0  0  0  0  0  0
   29.8708   26.5455   39.9938 H   0  0  0  0  0  0  0  0  0  0  0  0
   31.4529   26.1455   40.7623 H   0  0  0  0  0  0  0  0  0  0  0  0
   30.4305   29.3022   44.2354 H   0  0  0  0  0  0  0  0  0  0  0  0
   30.6482   31.6028   40.7375 H   0  0  0  0  0  0  0  0  0  0  0  0
   32.1378   30.6136   37.3734 H   0  0  0  0  0  0  0  0  0  0  0  0
   32.0767   31.4363   38.9500 H   0  0  0  0  0  0  0  0  0  0  0  0
   33.0218   29.9141   38.7811 H   0  0  0  0  0  0  0  0  0  0  0  0
   29.5908   30.4388   37.2320 H   0  0  0  0  0  0  0  0  0  0  0  0
   28.6717   29.7523   38.6270 H   0  0  0  0  0  0  0  0  0  0  0  0
   29.4946   31.3445   38.7615 H   0  0  0  0  0  0  0  0  0  0  0  0
   31.5905   26.3623   43.1772 H   0  0  0  0  0  0  0  0  0  0  0  0
   29.8623   26.1247   42.6783 H   0  0  0  0  0  0  0  0  0  0  0  0
   30.2464   26.9526   44.2189 H   0  0  0  0  0  0  0  0  0  0  0  0
  1  2  1  0
  2  3  2  0
  2  4  1  0
  4  5  2  0
  5  6  1  0
  6  7  2  0
  7  8  1  0
  8  9  2  0
  9 10  1  0
 10 11  2  0
 11 12  1  0
 12 13  2  0
 13 14  1  0
  8 15  1  0
 15 16  1  0
 16 17  1  0
 17 18  1  0
 18 19  2  0
 19 20  1  0
 20 21  2  0
 21 22  1  0
 22 23  2  0
 23 24  1  0
 24 25  1  0
 24 26  1  0
 19 27  1  0
 13  4  1  0
 24 15  1  0
 12  7  1  0
 23 18  1  0
  1 28  1  0
  1 29  1  0
  9 30  1  0
 10 31  1  0
 11 32  1  0
 14 33  1  0
 14 34  1  0
 16 35  1  0
 16 36  1  0
 17 37  1  0
 17 38  1  0
 20 39  1  0
 22 40  1  0
 25 41  1  0
 25 42  1  0
 25 43  1  0
 26 44  1  0
 26 45  1  0
 26 46  1  0
 27 47  1  0
 27 48  1  0
 27 49  1  0
M  END
$$$$
confid_2
     RDKit          3D

 49 52  0  0  0  0  0  0  0  0999 V2000
   24.5500   26.3900   36.2500 N   0  0  0  0  0  0  0  0  0  0  0  0
   25.6000   26.1300   35.4000 C   0  0  0  0  0  0  0  0  0  0  0  0
   25.4300   25.4300   34.4200 O   0  0  0  0  0  0  0  0  0  0  0  0
   26.9800   26.6300   35.7100 C   0  0  0  0  0  0  0  0  0  0  0  0
   27.3200   26.8200   36.9800 N   0  0  0  0  0  0  0  0  0  0  0  0
   28.4700   27.4000   37.3100 N   0  0  0  0  0  0  0  0  0  0  0  0
   29.4000   27.6300   36.3700 C   0  0  0  0  0  0  0  0  0  0  0  0
   30.6600   28.0500   36.8000 C   0  0  0  0  0  0  0  0  0  0  0  0
   31.5700   28.3600   35.7800 C   0  0  0  0  0  0  0  0  0  0  0  0
   31.3700   28.1000   34.4300 C   0  0  0  0  0  0  0  0  0  0  0  0
   30.1200   27.5900   34.0500 C   0  0  0  0  0  0  0  0  0  0  0  0
   29.1500   27.3400   35.0300 C   0  0  0  0  0  0  0  0  0  0  0  0
   27.8800   26.8900   34.6600 C   0  0  0  0  0  0  0  0  0  0  0  0
   27.4800   26.6100   33.3700 N   0  0  0  0  0  0  0  0  0  0  0  0
   30.9918   28.2363   38.1930 N   0  0  0  0  0  0  0  0  0  0  0  0
   31.1396   27.0287   39.0029 C   0  0  0  0  0  0  0  0  0  0  0  0
   32.3665   27.1665   39.8828 C   0  0  0  0  0  0  0  0  0  0  0  0
   32.2781   28.4126   40.7296 C   0  0  0  0  0  0  0  0  0  0  0  0
   32.9526   28.4831   41.9745 C   0  0  0  0  0  0  0  0  0  0  0  0
   32.8456   29.6508   42.7385 C   0  0  0  0  0  0  0  0  0  0  0  0
   32.1467   30.7128   42.2739 N   0  0  0  0  0  0  0  0  0  0  0  0
   31.5258   30.6932   41.0697 C   0  0  0  0  0  0  0  0  0  0  0  0
   31.5711   29.5467   40.2490 C   0  0  0  0  0  0  0  0  0  0  0  0
   30.8946   29.5633   38.8609 C   0  0  0  0  0  0  0  0  0  0  0  0
   31.5936   30.6410   38.0012 C   0  0  0  0  0  0  0  0  0  0  0  0
   29.4014   29.9241   39.0147 C   0  0  0  0  0  0  0  0  0  0  0  0
   33.7603   27.3307   42.5142 C   0  0  0  0  0  0  0  0  0  0  0  0
   23.6003   26.0035   36.0507 H   0  0  0  0  0  0  0  0  0  0  0  0
   24.6736   26.9945   37.0925 H   0  0  0  0  0  0  0  0  0  0  0  0
   32.5435   28.7359   36.0657 H   0  0  0  0  0  0  0  0  0  0  0  0
   32.1387   28.3067   33.6966 H   0  0  0  0  0  0  0  0  0  0  0  0
   29.9371   27.3905   33.0019 H   0  0  0  0  0  0  0  0  0  0  0  0
   27.5823   27.3394   32.6302 H   0  0  0  0  0  0  0  0  0  0  0  0
   27.4183   25.6173   33.0514 H   0  0  0  0  0  0  0  0  0  0  0  0
   31.2621   26.1291   38.3585 H   0  0  0  0  0  0  0  0  0  0  0  0
   30.2320   26.8850   39.6294 H   0  0  0  0  0  0  0  0  0  0  0  0
   32.4288   26.2537   40.5116 H   0  0  0  0  0  0  0  0  0  0  0  0
   33.2774   27.2227   39.2485 H   0  0  0  0  0  0  0  0  0  0  0  0
   33.3285   29.7248   43.7046 H   0  0  0  0  0  0  0  0  0  0  0  0
   31.0051   31.5850   40.7530 H   0  0  0  0  0  0  0  0  0  0  0  0
   32.6625   30.3780   37.8509 H   0  0  0  0  0  0  0  0  0  0  0  0
   31.1019   30.7453   37.0114 H   0  0  0  0  0  0  0  0  0  0  0  0
   31.5485   31.6398   38.4826 H   0  0  0  0  0  0  0  0  0  0  0  0
   28.9042   29.9603   38.0229 H   0  0  0  0  0  0  0  0  0  0  0  0
   28.8861   29.1664   39.6429 H   0  0  0  0  0  0  0  0  0  0  0  0
   29.2597   30.9212   39.4789 H   0  0  0  0  0  0  0  0  0  0  0  0
   33.0800   26.5111   42.8264 H   0  0  0  0  0  0  0  0  0  0  0  0
   34.3669   27.6335   43.3943 H   0  0  0  0  0  0  0  0  0  0  0  0
   34.4619   26.9579   41.7385 H   0  0  0  0  0  0  0  0  0  0  0  0
  1  2  1  0
  2  3  2  0
  2  4  1  0
  4  5  2  0
  5  6  1  0
  6  7  2  0
  7  8  1  0
  8  9  2  0
  9 10  1  0
 10 11  2  0
 11 12  1  0
 12 13  2  0
 13 14  1  0
  8 15  1  0
 15 16  1  0
 16 17  1  0
 17 18  1  0
 18 19  2  0
 19 20  1  0
 20 21  2  0
 21 22  1  0
 22 23  2  0
 23 24  1  0
 24 25  1  0
 24 26  1  0
 19 27  1  0
 13  4  1  0
 24 15  1  0
 12  7  1  0
 23 18  1  0
  1 28  1  0
  1 29  1  0
  9 30  1  0
 10 31  1  0
 11 32  1  0
 14 33  1  0
 14 34  1  0
 16 35  1  0
 16 36  1  0
 17 37  1  0
 17 38  1  0
 20 39  1  0
 22 40  1  0
 25 41  1  0
 25 42  1  0
 25 43  1  0
 26 44  1  0
 26 45  1  0
 26 46  1  0
 27 47  1  0
 27 48  1  0
 27 49  1  0
M  END
$$$$
confid_3
     RDKit          3D

 49 52  0  0  0  0  0  0  0  0999 V2000
   24.5500   26.3900   36.2500 N   0  0  0  0  0  0  0  0  0  0  0  0
   25.6000   26.1300   35.4000 C   0  0  0  0  0  0  0  0  0  0  0  0
   25.4300   25.4300   34.4200 O   0  0  0  0  0  0  0  0  0  0  0  0
   26.9800   26.6300   35.7100 C   0  0  0  0  0  0  0  0  0  0  0  0
   27.3200   26.8200   36.9800 N   0  0  0  0  0  0  0  0  0  0  0  0
   28.4700   27.4000   37.3100 N   0  0  0  0  0  0  0  0  0  0  0  0
   29.4000   27.6300   36.3700 C   0  0  0  0  0  0  0  0  0  0  0  0
   30.6600   28.0500   36.8000 C   0  0  0  0  0  0  0  0  0  0  0  0
   31.5700   28.3600   35.7800 C   0  0  0  0  0  0  0  0  0  0  0  0
   31.3700   28.1000   34.4300 C   0  0  0  0  0  0  0  0  0  0  0  0
   30.1200   27.5900   34.0500 C   0  0  0  0  0  0  0  0  0  0  0  0
   29.1500   27.3400   35.0300 C   0  0  0  0  0  0  0  0  0  0  0  0
   27.8800   26.8900   34.6600 C   0  0  0  0  0  0  0  0  0  0  0  0
   27.4800   26.6100   33.3700 N   0  0  0  0  0  0  0  0  0  0  0  0
   30.9583   28.3446   38.1802 N   0  0  0  0  0  0  0  0  0  0  0  0
   30.3004   29.5038   38.7804 C   0  0  0  0  0  0  0  0  0  0  0  0
   31.3125   30.2852   39.5954 C   0  0  0  0  0  0  0  0  0  0  0  0
   31.9647   29.3985   40.6281 C   0  0  0  0  0  0  0  0  0  0  0  0
   32.4786   29.9518   41.8280 C   0  0  0  0  0  0  0  0  0  0  0  0
   33.0750   29.1012   42.7659 C   0  0  0  0  0  0  0  0  0  0  0  0
   33.2003   27.7778   42.5099 N   0  0  0  0  0  0  0  0  0  0  0  0
   32.7575   27.2244   41.3551 C   0  0  0  0  0  0  0  0  0  0  0  0
   32.1275   28.0118   40.3692 C   0  0  0  0  0  0  0  0  0  0  0  0
   31.6742   27.3682   39.0420 C   0  0  0  0  0  0  0  0  0  0  0  0
   32.9307   26.8470   38.3074 C   0  0  0  0  0  0  0  0  0  0  0  0
   30.7217   26.1881   39.3309 C   0  0  0  0  0  0  0  0  0  0  0  0
   32.3794   31.4233   42.1381 C   0  0  0  0  0  0  0  0  0  0  0  0
   24.6740   26.9931   37.0934 H   0  0  0  0  0  0  0  0  0  0  0  0
   23.6001   26.0041   36.0503 H   0  0  0  0  0  0  0  0  0  0  0  0
   32.5225   28.7881   36.0648 H   0  0  0  0  0  0  0  0  0  0  0  0
   32.1323   28.3237   33.6948 H   0  0  0  0  0  0  0  0  0  0  0  0
   29.9369   27.4188   32.9982 H   0  0  0  0  0  0  0  0  0  0  0  0
   26.5962   27.0148   32.9873 H   0  0  0  0  0  0  0  0  0  0  0  0
   28.1243   26.1388   32.6978 H   0  0  0  0  0  0  0  0  0  0  0  0
   29.4653   29.1635   39.4313 H   0  0  0  0  0  0  0  0  0  0  0  0
   29.8801   30.1724   37.9961 H   0  0  0  0  0  0  0  0  0  0  0  0
   30.7737   31.1315   40.0705 H   0  0  0  0  0  0  0  0  0  0  0  0
   32.0963   30.6967   38.9233 H   0  0  0  0  0  0  0  0  0  0  0  0
   33.4534   29.4907   43.7024 H   0  0  0  0  0  0  0  0  0  0  0  0
   32.9118   26.1653   41.2075 H   0  0  0  0  0  0  0  0  0  0  0  0
   33.6058   27.6932   38.0571 H   0  0  0  0  0  0  0  0  0  0  0  0
   33.4964   26.1230   38.9302 H   0  0  0  0  0  0  0  0  0  0  0  0
   32.6565   26.3180   37.3704 H   0  0  0  0  0  0  0  0  0  0  0  0
   31.2147   25.3915   39.9244 H   0  0  0  0  0  0  0  0  0  0  0  0
   30.3810   25.7198   38.3836 H   0  0  0  0  0  0  0  0  0  0  0  0
   29.8290   26.5441   39.8883 H   0  0  0  0  0  0  0  0  0  0  0  0
   31.3251   31.6875   42.3637 H   0  0  0  0  0  0  0  0  0  0  0  0
   33.0026   31.6988   43.0156 H   0  0  0  0  0  0  0  0  0  0  0  0
   32.7373   32.0222   41.2744 H   0  0  0  0  0  0  0  0  0  0  0  0
  1  2  1  0
  2  3  2  0
  2  4  1  0
  4  5  2  0
  5  6  1  0
  6  7  2  0
  7  8  1  0
  8  9  2  0
  9 10  1  0
 10 11  2  0
 11 12  1  0
 12 13  2  0
 13 14  1  0
  8 15  1  0
 15 16  1  0
 16 17  1  0
 17 18  1  0
 18 19  2  0
 19 20  1  0
 20 21  2  0
 21 22  1  0
 22 23  2  0
 23 24  1  0
 24 25  1  0
 24 26  1  0
 19 27  1  0
 13  4  1  0
 24 15  1  0
 12  7  1  0
 23 18  1  0
  1 28  1  0
  1 29  1  0
  9 30  1  0
 10 31  1  0
 11 32  1  0
 14 33  1  0
 14 34  1  0
 16 35  1  0
 16 36  1  0
 17 37  1  0
 17 38  1  0
 20 39  1  0
 22 40  1  0
 25 41  1  0
 25 42  1  0
 25 43  1  0
 26 44  1  0
 26 45  1  0
 26 46  1  0
 27 47  1  0
 27 48  1  0
 27 49  1  0
M  END
$$$$
confid_4
     RDKit          3D

 49 52  0  0  0  0  0  0  0  0999 V2000
   24.5500   26.3900   36.2500 N   0  0  0  0  0  0  0  0  0  0  0  0
   25.6000   26.1300   35.4000 C   0  0  0  0  0  0  0  0  0  0  0  0
   25.4300   25.4300   34.4200 O   0  0  0  0  0  0  0  0  0  0  0  0
   26.9800   26.6300   35.7100 C   0  0  0  0  0  0  0  0  0  0  0  0
   27.3200   26.8200   36.9800 N   0  0  0  0  0  0  0  0  0  0  0  0
   28.4700   27.4000   37.3100 N   0  0  0  0  0  0  0  0  0  0  0  0
   29.4000   27.6300   36.3700 C   0  0  0  0  0  0  0  0  0  0  0  0
   30.6600   28.0500   36.8000 C   0  0  0  0  0  0  0  0  0  0  0  0
   31.5700   28.3600   35.7800 C   0  0  0  0  0  0  0  0  0  0  0  0
   31.3700   28.1000   34.4300 C   0  0  0  0  0  0  0  0  0  0  0  0
   30.1200   27.5900   34.0500 C   0  0  0  0  0  0  0  0  0  0  0  0
   29.1500   27.3400   35.0300 C   0  0  0  0  0  0  0  0  0  0  0  0
   27.8800   26.8900   34.6600 C   0  0  0  0  0  0  0  0  0  0  0  0
   27.4800   26.6100   33.3700 N   0  0  0  0  0  0  0  0  0  0  0  0
   30.9457   28.3358   38.1826 N   0  0  0  0  0  0  0  0  0  0  0  0
   30.8070   29.7214   38.6232 C   0  0  0  0  0  0  0  0  0  0  0  0
   30.0801   29.7480   39.9541 C   0  0  0  0  0  0  0  0  0  0  0  0
   30.7759   28.8714   40.9683 C   0  0  0  0  0  0  0  0  0  0  0  0
   30.6352   29.1322   42.3546 C   0  0  0  0  0  0  0  0  0  0  0  0
   31.2943   28.3047   43.2711 C   0  0  0  0  0  0  0  0  0  0  0  0
   32.0189   27.2452   42.8413 N   0  0  0  0  0  0  0  0  0  0  0  0
   32.1389   26.9431   41.5259 C   0  0  0  0  0  0  0  0  0  0  0  0
   31.5169   27.7373   40.5405 C   0  0  0  0  0  0  0  0  0  0  0  0
   31.6373   27.3507   39.0520 C   0  0  0  0  0  0  0  0  0  0  0  0
   31.0046   25.9522   38.8595 C   0  0  0  0  0  0  0  0  0  0  0  0
   33.1259   27.3018   38.6467 C   0  0  0  0  0  0  0  0  0  0  0  0
   29.8207   30.2897   42.8728 C   0  0  0  0  0  0  0  0  0  0  0  0
   24.6740   26.9931   37.0934 H   0  0  0  0  0  0  0  0  0  0  0  0
   23.6001   26.0039   36.0504 H   0  0  0  0  0  0  0  0  0  0  0  0
   32.5224   28.7887   36.0646 H   0  0  0  0  0  0  0  0  0  0  0  0
   32.1340   28.3188   33.6952 H   0  0  0  0  0  0  0  0  0  0  0  0
   29.9362   27.3932   33.0015 H   0  0  0  0  0  0  0  0  0  0  0  0
   27.5825   27.3394   32.6301 H   0  0  0  0  0  0  0  0  0  0  0  0
   27.4183   25.6173   33.0515 H   0  0  0  0  0  0  0  0  0  0  0  0
   30.2244   30.3176   37.8855 H   0  0  0  0  0  0  0  0  0  0  0  0
   31.8132   30.1836   38.7249 H   0  0  0  0  0  0  0  0  0  0  0  0
   30.0446   30.8049   40.2922 H   0  0  0  0  0  0  0  0  0  0  0  0
   29.0384   29.3852   39.8168 H   0  0  0  0  0  0  0  0  0  0  0  0
   31.2264   28.4948   44.3347 H   0  0  0  0  0  0  0  0  0  0  0  0
   32.7181   26.0721   41.2551 H   0  0  0  0  0  0  0  0  0  0  0  0
   31.0738   25.6221   37.8014 H   0  0  0  0  0  0  0  0  0  0  0  0
   31.5211   25.1829   39.4702 H   0  0  0  0  0  0  0  0  0  0  0  0
   29.9346   25.9712   39.1571 H   0  0  0  0  0  0  0  0  0  0  0  0
   33.2339   26.9967   37.5853 H   0  0  0  0  0  0  0  0  0  0  0  0
   33.5923   28.3018   38.7755 H   0  0  0  0  0  0  0  0  0  0  0  0
   33.6956   26.5676   39.2522 H   0  0  0  0  0  0  0  0  0  0  0  0
   28.8203   30.3010   42.3912 H   0  0  0  0  0  0  0  0  0  0  0  0
   29.6615   30.2184   43.9699 H   0  0  0  0  0  0  0  0  0  0  0  0
   30.3480   31.2429   42.6589 H   0  0  0  0  0  0  0  0  0  0  0  0
  1  2  1  0
  2  3  2  0
  2  4  1  0
  4  5  2  0
  5  6  1  0
  6  7  2  0
  7  8  1  0
  8  9  2  0
  9 10  1  0
 10 11  2  0
 11 12  1  0
 12 13  2  0
 13 14  1  0
  8 15  1  0
 15 16  1  0
 16 17  1  0
 17 18  1  0
 18 19  2  0
 19 20  1  0
 20 21  2  0
 21 22  1  0
 22 23  2  0
 23 24  1  0
 24 25  1  0
 24 26  1  0
 19 27  1  0
 13  4  1  0
 24 15  1  0
 12  7  1  0
 23 18  1  0
  1 28  1  0
  1 29  1  0
  9 30  1  0
 10 31  1  0
 11 32  1  0
 14 33  1  0
 14 34  1  0
 16 35  1  0
 16 36  1  0
 17 37  1  0
 17 38  1  0
 20 39  1  0
 22 40  1  0
 25 41  1  0
 25 42  1  0
 25 43  1  0
 26 44  1  0
 26 45  1  0
 26 46  1  0
 27 47  1  0
 27 48  1  0
 27 49  1  0
M  END
$$$$
confid_5
     RDKit          3D

 49 52  0  0  0  0  0  0  0  0999 V2000
   24.5500   26.3900   36.2500 N   0  0  0  0  0  0  0  0  0  0  0  0
   25.6000   26.1300   35.4000 C   0  0  0  0  0  0  0  0  0  0  0  0
   25.4300   25.4300   34.4200 O   0  0  0  0  0  0  0  0  0  0  0  0
   26.9800   26.6300   35.7100 C   0  0  0  0  0  0  0  0  0  0  0  0
   27.3200   26.8200   36.9800 N   0  0  0  0  0  0  0  0  0  0  0  0
   28.4700   27.4000   37.3100 N   0  0  0  0  0  0  0  0  0  0  0  0
   29.4000   27.6300   36.3700 C   0  0  0  0  0  0  0  0  0  0  0  0
   30.6600   28.0500   36.8000 C   0  0  0  0  0  0  0  0  0  0  0  0
   31.5700   28.3600   35.7800 C   0  0  0  0  0  0  0  0  0  0  0  0
   31.3700   28.1000   34.4300 C   0  0  0  0  0  0  0  0  0  0  0  0
   30.1200   27.5900   34.0500 C   0  0  0  0  0  0  0  0  0  0  0  0
   29.1500   27.3400   35.0300 C   0  0  0  0  0  0  0  0  0  0  0  0
   27.8800   26.8900   34.6600 C   0  0  0  0  0  0  0  0  0  0  0  0
   27.4800   26.6100   33.3700 N   0  0  0  0  0  0  0  0  0  0  0  0
   30.9488   28.3309   38.1831 N   0  0  0  0  0  0  0  0  0  0  0  0
   30.8480   29.7212   38.6191 C   0  0  0  0  0  0  0  0  0  0  0  0
   30.1312   29.7705   39.9545 C   0  0  0  0  0  0  0  0  0  0  0  0
   30.8189   28.8860   40.9676 C   0  0  0  0  0  0  0  0  0  0  0  0
   30.7065   29.1635   42.3534 C   0  0  0  0  0  0  0  0  0  0  0  0
   31.3502   28.3222   43.2683 C   0  0  0  0  0  0  0  0  0  0  0  0
   32.0381   27.2389   42.8378 N   0  0  0  0  0  0  0  0  0  0  0  0
   32.1346   26.9246   41.5235 C   0  0  0  0  0  0  0  0  0  0  0  0
   31.5246   27.7295   40.5395 C   0  0  0  0  0  0  0  0  0  0  0  0
   31.6246   27.3341   39.0518 C   0  0  0  0  0  0  0  0  0  0  0  0
   33.1090   27.2507   38.6359 C   0  0  0  0  0  0  0  0  0  0  0  0
   30.9608   25.9488   38.8696 C   0  0  0  0  0  0  0  0  0  0  0  0
   29.9394   30.3530   42.8721 C   0  0  0  0  0  0  0  0  0  0  0  0
   23.6001   26.0040   36.0503 H   0  0  0  0  0  0  0  0  0  0  0  0
   24.6738   26.9936   37.0931 H   0  0  0  0  0  0  0  0  0  0  0  0
   32.5230   28.7872   36.0651 H   0  0  0  0  0  0  0  0  0  0  0  0
   32.1325   28.3232   33.6948 H   0  0  0  0  0  0  0  0  0  0  0  0
   29.9371   27.4183   32.9983 H   0  0  0  0  0  0  0  0  0  0  0  0
   26.5963   27.0152   32.9872 H   0  0  0  0  0  0  0  0  0  0  0  0
   28.1242   26.1383   32.6981 H   0  0  0  0  0  0  0  0  0  0  0  0
   31.8663   30.1567   38.7148 H   0  0  0  0  0  0  0  0  0  0  0  0
   30.2779   30.3300   37.8822 H   0  0  0  0  0  0  0  0  0  0  0  0
   30.1175   30.8299   40.2852 H   0  0  0  0  0  0  0  0  0  0  0  0
   29.0820   29.4268   39.8269 H   0  0  0  0  0  0  0  0  0  0  0  0
   31.3012   28.5217   44.3311 H   0  0  0  0  0  0  0  0  0  0  0  0
   32.6872   26.0365   41.2523 H   0  0  0  0  0  0  0  0  0  0  0  0
   33.2028   26.9423   37.5740 H   0  0  0  0  0  0  0  0  0  0  0  0
   33.6658   26.5046   39.2392 H   0  0  0  0  0  0  0  0  0  0  0  0
   33.5984   28.2400   38.7613 H   0  0  0  0  0  0  0  0  0  0  0  0
   31.4686   25.1700   39.4757 H   0  0  0  0  0  0  0  0  0  0  0  0
   31.0099   25.6147   37.8115 H   0  0  0  0  0  0  0  0  0  0  0  0
   29.8957   25.9906   39.1815 H   0  0  0  0  0  0  0  0  0  0  0  0
   28.9210   30.3741   42.4300 H   0  0  0  0  0  0  0  0  0  0  0  0
   29.8257   30.3173   43.9769 H   0  0  0  0  0  0  0  0  0  0  0  0
   30.4790   31.2876   42.6118 H   0  0  0  0  0  0  0  0  0  0  0  0
  1  2  1  0
  2  3  2  0
  2  4  1  0
  4  5  2  0
  5  6  1  0
  6  7  2  0
  7  8  1  0
  8  9  2  0
  9 10  1  0
 10 11  2  0
 11 12  1  0
 12 13  2  0
 13 14  1  0
  8 15  1  0
 15 16  1  0
 16 17  1  0
 17 18  1  0
 18 19  2  0
 19 20  1  0
 20 21  2  0
 21 22  1  0
 22 23  2  0
 23 24  1  0
 24 25  1  0
 24 26  1  0
 19 27  1  0
 13  4  1  0
 24 15  1  0
 12  7  1  0
 23 18  1  0
  1 28  1  0
  1 29  1  0
  9 30  1  0
 10 31  1  0
 11 32  1  0
 14 33  1  0
 14 34  1  0
 16 35  1  0
 16 36  1  0
 17 37  1  0
 17 38  1  0
 20 39  1  0
 22 40  1  0
 25 41  1  0
 25 42  1  0
 25 43  1  0
 26 44  1  0
 26 45  1  0
 26 46  1  0
 27 47  1  0
 27 48  1  0
 27 49  1  0
M  END
$$$$
confid_6
     RDKit          3D

 49 52  0  0  0  0  0  0  0  0999 V2000
   24.5500   26.3900   36.2500 N   0  0  0  0  0  0  0  0  0  0  0  0
   25.6000   26.1300   35.4000 C   0  0  0  0  0  0  0  0  0  0  0  0
   25.4300   25.4300   34.4200 O   0  0  0  0  0  0  0  0  0  0  0  0
   26.9800   26.6300   35.7100 C   0  0  0  0  0  0  0  0  0  0  0  0
   27.3200   26.8200   36.9800 N   0  0  0  0  0  0  0  0  0  0  0  0
   28.4700   27.4000   37.3100 N   0  0  0  0  0  0  0  0  0  0  0  0
   29.4000   27.6300   36.3700 C   0  0  0  0  0  0  0  0  0  0  0  0
   30.6600   28.0500   36.8000 C   0  0  0  0  0  0  0  0  0  0  0  0
   31.5700   28.3600   35.7800 C   0  0  0  0  0  0  0  0  0  0  0  0
   31.3700   28.1000   34.4300 C   0  0  0  0  0  0  0  0  0  0  0  0
   30.1200   27.5900   34.0500 C   0  0  0  0  0  0  0  0  0  0  0  0
   29.1500   27.3400   35.0300 C   0  0  0  0  0  0  0  0  0  0  0  0
   27.8800   26.8900   34.6600 C   0  0  0  0  0  0  0  0  0  0  0  0
   27.4800   26.6100   33.3700 N   0  0  0  0  0  0  0  0  0  0  0  0
   30.9689   28.2668   38.1910 N   0  0  0  0  0  0  0  0  0  0  0  0
   31.6259   27.1756   38.9047 C   0  0  0  0  0  0  0  0  0  0  0  0
   30.8922   26.9277   40.2088 C   0  0  0  0  0  0  0  0  0  0  0  0
   30.7804   28.1973   41.0206 C   0  0  0  0  0  0  0  0  0  0  0  0
   30.6205   28.1309   42.4277 C   0  0  0  0  0  0  0  0  0  0  0  0
   30.5266   29.3215   43.1573 C   0  0  0  0  0  0  0  0  0  0  0  0
   30.5454   30.5177   42.5239 N   0  0  0  0  0  0  0  0  0  0  0  0
   30.6535   30.6157   41.1769 C   0  0  0  0  0  0  0  0  0  0  0  0
   30.7630   29.4623   40.3725 C   0  0  0  0  0  0  0  0  0  0  0  0
   30.8521   29.5996   38.8382 C   0  0  0  0  0  0  0  0  0  0  0  0
   29.5788   30.3230   38.3364 C   0  0  0  0  0  0  0  0  0  0  0  0
   32.0939   30.4377   38.4673 C   0  0  0  0  0  0  0  0  0  0  0  0
   30.5784   26.8182   43.1673 C   0  0  0  0  0  0  0  0  0  0  0  0
   24.6740   26.9932   37.0933 H   0  0  0  0  0  0  0  0  0  0  0  0
   23.6001   26.0040   36.0503 H   0  0  0  0  0  0  0  0  0  0  0  0
   32.5433   28.7361   36.0653 H   0  0  0  0  0  0  0  0  0  0  0  0
   32.1369   28.3119   33.6961 H   0  0  0  0  0  0  0  0  0  0  0  0
   29.9380   27.4161   32.9985 H   0  0  0  0  0  0  0  0  0  0  0  0
   28.1242   26.1385   32.6979 H   0  0  0  0  0  0  0  0  0  0  0  0
   26.5962   27.0150   32.9873 H   0  0  0  0  0  0  0  0  0  0  0  0
   31.6153   26.2391   38.3029 H   0  0  0  0  0  0  0  0  0  0  0  0
   32.6860   27.4437   39.1052 H   0  0  0  0  0  0  0  0  0  0  0  0
   29.8708   26.5455   39.9938 H   0  0  0  0  0  0  0  0  0  0  0  0
   31.4530   26.1455   40.7623 H   0  0  0  0  0  0  0  0  0  0  0  0
   30.4305   29.3022   44.2354 H   0  0  0  0  0  0  0  0  0  0  0  0
   30.6481   31.6028   40.7375 H   0  0  0  0  0  0  0  0  0  0  0  0
   28.6717   29.7523   38.6270 H   0  0  0  0  0  0  0  0  0  0  0  0
   29.5908   30.4388   37.2320 H   0  0  0  0  0  0  0  0  0  0  0  0
   29.4946   31.3445   38.7615 H   0  0  0  0  0  0  0  0  0  0  0  0
   32.1378   30.6136   37.3734 H   0  0  0  0  0  0  0  0  0  0  0  0
   32.0767   31.4363   38.9500 H   0  0  0  0  0  0  0  0  0  0  0  0
   33.0218   29.9141   38.7811 H   0  0  0  0  0  0  0  0  0  0  0  0
   31.5905   26.3624   43.1772 H   0  0  0  0  0  0  0  0  0  0  0  0
   30.2464   26.9526   44.2189 H   0  0  0  0  0  0  0  0  0  0  0  0
   29.8623   26.1247   42.6783 H   0  0  0  0  0  0  0  0  0  0  0  0
  1  2  1  0
  2  3  2  0
  2  4  1  0
  4  5  2  0
  5  6  1  0
  6  7  2  0
  7  8  1  0
  8  9  2  0
  9 10  1  0
 10 11  2  0
 11 12  1  0
 12 13  2  0
 13 14  1  0
  8 15  1  0
 15 16  1  0
 16 17  1  0
 17 18  1  0
 18 19  2  0
 19 20  1  0
 20 21  2  0
 21 22  1  0
 22 23  2  0
 23 24  1  0
 24 25  1  0
 24 26  1  0
 19 27  1  0
 13  4  1  0
 24 15  1  0
 12  7  1  0
 23 18  1  0
  1 28  1  0
  1 29  1  0
  9 30  1  0
 10 31  1  0
 11 32  1  0
 14 33  1  0
 14 34  1  0
 16 35  1  0
 16 36  1  0
 17 37  1  0
 17 38  1  0
 20 39  1  0
 22 40  1  0
 25 41  1  0
 25 42  1  0
 25 43  1  0
 26 44  1  0
 26 45  1  0
 26 46  1  0
 27 47  1  0
 27 48  1  0
 27 49  1  0
M  END
$$$$
confid_7
     RDKit          3D

 49 52  0  0  0  0  0  0  0  0999 V2000
   24.5500   26.3900   36.2500 N   0  0  0  0  0  0  0  0  0  0  0  0
   25.6000   26.1300   35.4000 C   0  0  0  0  0  0  0  0  0  0  0  0
   25.4300   25.4300   34.4200 O   0  0  0  0  0  0  0  0  0  0  0  0
   26.9800   26.6300   35.7100 C   0  0  0  0  0  0  0  0  0  0  0  0
   27.3200   26.8200   36.9800 N   0  0  0  0  0  0  0  0  0  0  0  0
   28.4700   27.4000   37.3100 N   0  0  0  0  0  0  0  0  0  0  0  0
   29.4000   27.6300   36.3700 C   0  0  0  0  0  0  0  0  0  0  0  0
   30.6600   28.0500   36.8000 C   0  0  0  0  0  0  0  0  0  0  0  0
   31.5700   28.3600   35.7800 C   0  0  0  0  0  0  0  0  0  0  0  0
   31.3700   28.1000   34.4300 C   0  0  0  0  0  0  0  0  0  0  0  0
   30.1200   27.5900   34.0500 C   0  0  0  0  0  0  0  0  0  0  0  0
   29.1500   27.3400   35.0300 C   0  0  0  0  0  0  0  0  0  0  0  0
   27.8800   26.8900   34.6600 C   0  0  0  0  0  0  0  0  0  0  0  0
   27.4800   26.6100   33.3700 N   0  0  0  0  0  0  0  0  0  0  0  0
   30.9907   28.2396   38.1928 N   0  0  0  0  0  0  0  0  0  0  0  0
   31.1370   27.0337   39.0057 C   0  0  0  0  0  0  0  0  0  0  0  0
   32.3624   27.1728   39.8874 C   0  0  0  0  0  0  0  0  0  0  0  0
   32.2753   28.4222   40.7293 C   0  0  0  0  0  0  0  0  0  0  0  0
   32.9514   28.4968   41.9731 C   0  0  0  0  0  0  0  0  0  0  0  0
   32.8458   29.6671   42.7332 C   0  0  0  0  0  0  0  0  0  0  0  0
   32.1463   30.7276   42.2661 N   0  0  0  0  0  0  0  0  0  0  0  0
   31.5240   30.7042   41.0627 C   0  0  0  0  0  0  0  0  0  0  0  0
   31.5687   29.5552   40.2455 C   0  0  0  0  0  0  0  0  0  0  0  0
   30.8908   29.5676   38.8582 C   0  0  0  0  0  0  0  0  0  0  0  0
   29.3970   29.9252   39.0131 C   0  0  0  0  0  0  0  0  0  0  0  0
   31.5861   30.6456   37.9956 C   0  0  0  0  0  0  0  0  0  0  0  0
   33.7580   27.3454   42.5167 C   0  0  0  0  0  0  0  0  0  0  0  0
   24.6740   26.9933   37.0933 H   0  0  0  0  0  0  0  0  0  0  0  0
   23.6001   26.0040   36.0503 H   0  0  0  0  0  0  0  0  0  0  0  0
   32.5429   28.7376   36.0656 H   0  0  0  0  0  0  0  0  0  0  0  0
   32.1368   28.3123   33.6961 H   0  0  0  0  0  0  0  0  0  0  0  0
   29.9380   27.4161   32.9985 H   0  0  0  0  0  0  0  0  0  0  0  0
   28.1242   26.1385   32.6979 H   0  0  0  0  0  0  0  0  0  0  0  0
   26.5962   27.0150   32.9873 H   0  0  0  0  0  0  0  0  0  0  0  0
   31.2603   26.1327   38.3636 H   0  0  0  0  0  0  0  0  0  0  0  0
   30.2284   26.8917   39.6311 H   0  0  0  0  0  0  0  0  0  0  0  0
   33.2746   27.2244   39.2545 H   0  0  0  0  0  0  0  0  0  0  0  0
   32.4213   26.2624   40.5199 H   0  0  0  0  0  0  0  0  0  0  0  0
   33.3294   29.7440   43.6987 H   0  0  0  0  0  0  0  0  0  0  0  0
   31.0024   31.5950   40.7441 H   0  0  0  0  0  0  0  0  0  0  0  0
   28.8842   29.1675   39.6433 H   0  0  0  0  0  0  0  0  0  0  0  0
   29.2536   30.9228   39.4757 H   0  0  0  0  0  0  0  0  0  0  0  0
   28.8983   29.9585   38.0220 H   0  0  0  0  0  0  0  0  0  0  0  0
   32.6559   30.3861   37.8466 H   0  0  0  0  0  0  0  0  0  0  0  0
   31.5371   31.6458   38.4740 H   0  0  0  0  0  0  0  0  0  0  0  0
   31.0945   30.7455   37.0053 H   0  0  0  0  0  0  0  0  0  0  0  0
   34.3705   27.6526   43.3911 H   0  0  0  0  0  0  0  0  0  0  0  0
   33.0762   26.5305   42.8384 H   0  0  0  0  0  0  0  0  0  0  0  0
   34.4541   26.9642   41.7401 H   0  0  0  0  0  0  0  0  0  0  0  0
  1  2  1  0
  2  3  2  0
  2  4  1  0
  4  5  2  0
  5  6  1  0
  6  7  2  0
  7  8  1  0
  8  9  2  0
  9 10  1  0
 10 11  2  0
 11 12  1  0
 12 13  2  0
 13 14  1  0
  8 15  1  0
 15 16  1  0
 16 17  1  0
 17 18  1  0
 18 19  2  0
 19 20  1  0
 20 21  2  0
 21 22  1  0
 22 23  2  0
 23 24  1  0
 24 25  1  0
 24 26  1  0
 19 27  1  0
 13  4  1  0
 24 15  1  0
 12  7  1  0
 23 18  1  0
  1 28  1  0
  1 29  1  0
  9 30  1  0
 10 31  1  0
 11 32  1  0
 14 33  1  0
 14 34  1  0
 16 35  1  0
 16 36  1  0
 17 37  1  0
 17 38  1  0
 20 39  1  0
 22 40  1  0
 25 41  1  0
 25 42  1  0
 25 43  1  0
 26 44  1  0
 26 45  1  0
 26 46  1  0
 27 47  1  0
 27 48  1  0
 27 49  1  0
M  END
$$$$
confid_8
     RDKit          3D

 49 52  0  0  0  0  0  0  0  0999 V2000
   24.5500   26.3900   36.2500 N   0  0  0  0  0  0  0  0  0  0  0  0
   25.6000   26.1300   35.4000 C   0  0  0  0  0  0  0  0  0  0  0  0
   25.4300   25.4300   34.4200 O   0  0  0  0  0  0  0  0  0  0  0  0
   26.9800   26.6300   35.7100 C   0  0  0  0  0  0  0  0  0  0  0  0
   27.3200   26.8200   36.9800 N   0  0  0  0  0  0  0  0  0  0  0  0
   28.4700   27.4000   37.3100 N   0  0  0  0  0  0  0  0  0  0  0  0
   29.4000   27.6300   36.3700 C   0  0  0  0  0  0  0  0  0  0  0  0
   30.6600   28.0500   36.8000 C   0  0  0  0  0  0  0  0  0  0  0  0
   31.5700   28.3600   35.7800 C   0  0  0  0  0  0  0  0  0  0  0  0
   31.3700   28.1000   34.4300 C   0  0  0  0  0  0  0  0  0  0  0  0
   30.1200   27.5900   34.0500 C   0  0  0  0  0  0  0  0  0  0  0  0
   29.1500   27.3400   35.0300 C   0  0  0  0  0  0  0  0  0  0  0  0
   27.8800   26.8900   34.6600 C   0  0  0  0  0  0  0  0  0  0  0  0
   27.4800   26.6100   33.3700 N   0  0  0  0  0  0  0  0  0  0  0  0
   30.9771   28.2688   38.1899 N   0  0  0  0  0  0  0  0  0  0  0  0
   31.7967   27.2476   38.8379 C   0  0  0  0  0  0  0  0  0  0  0  0
   31.2596   26.9852   40.2317 C   0  0  0  0  0  0  0  0  0  0  0  0
   31.1735   28.2649   41.0286 C   0  0  0  0  0  0  0  0  0  0  0  0
   31.2439   28.2316   42.4449 C   0  0  0  0  0  0  0  0  0  0  0  0
   31.1580   29.4335   43.1576 C   0  0  0  0  0  0  0  0  0  0  0  0
   30.9621   30.6039   42.5067 N   0  0  0  0  0  0  0  0  0  0  0  0
   30.8442   30.6650   41.1578 C   0  0  0  0  0  0  0  0  0  0  0  0
   30.9509   29.5023   40.3671 C   0  0  0  0  0  0  0  0  0  0  0  0
   30.8245   29.6024   38.8321 C   0  0  0  0  0  0  0  0  0  0  0  0
   29.4352   30.1921   38.4913 C   0  0  0  0  0  0  0  0  0  0  0  0
   31.9249   30.5428   38.2907 C   0  0  0  0  0  0  0  0  0  0  0  0
   31.4380   26.9460   43.2073 C   0  0  0  0  0  0  0  0  0  0  0  0
   24.6775   26.9791   37.1031 H   0  0  0  0  0  0  0  0  0  0  0  0
   23.5987   26.0105   36.0462 H   0  0  0  0  0  0  0  0  0  0  0  0
   32.5420   28.7402   36.0662 H   0  0  0  0  0  0  0  0  0  0  0  0
   32.1383   28.3076   33.6965 H   0  0  0  0  0  0  0  0  0  0  0  0
   29.9373   27.3904   33.0020 H   0  0  0  0  0  0  0  0  0  0  0  0
   27.4165   25.6172   33.0523 H   0  0  0  0  0  0  0  0  0  0  0  0
   27.5862   27.3381   32.6294 H   0  0  0  0  0  0  0  0  0  0  0  0
   32.8519   27.5942   38.8918 H   0  0  0  0  0  0  0  0  0  0  0  0
   31.7750   26.2940   38.2626 H   0  0  0  0  0  0  0  0  0  0  0  0
   30.2472   26.5335   40.1597 H   0  0  0  0  0  0  0  0  0  0  0  0
   31.9391   26.2534   40.7155 H   0  0  0  0  0  0  0  0  0  0  0  0
   31.2385   29.4432   44.2375 H   0  0  0  0  0  0  0  0  0  0  0  0
   30.6772   31.6325   40.7066 H   0  0  0  0  0  0  0  0  0  0  0  0
   29.2943   30.2778   37.3932 H   0  0  0  0  0  0  0  0  0  0  0  0
   29.3124   31.2140   38.9053 H   0  0  0  0  0  0  0  0  0  0  0  0
   28.6315   29.5496   38.9086 H   0  0  0  0  0  0  0  0  0  0  0  0
   31.8863   31.5428   38.7690 H   0  0  0  0  0  0  0  0  0  0  0  0
   31.8059   30.7088   37.2001 H   0  0  0  0  0  0  0  0  0  0  0  0
   32.9284   30.1061   38.4788 H   0  0  0  0  0  0  0  0  0  0  0  0
   30.6894   26.1924   42.8837 H   0  0  0  0  0  0  0  0  0  0  0  0
   31.3141   27.0955   44.3018 H   0  0  0  0  0  0  0  0  0  0  0  0
   32.4620   26.5573   43.0293 H   0  0  0  0  0  0  0  0  0  0  0  0
  1  2  1  0
  2  3  2  0
  2  4  1  0
  4  5  2  0
  5  6  1  0
  6  7  2  0
  7  8  1  0
  8  9  2  0
  9 10  1  0
 10 11  2  0
 11 12  1  0
 12 13  2  0
 13 14  1  0
  8 15  1  0
 15 16  1  0
 16 17  1  0
 17 18  1  0
 18 19  2  0
 19 20  1  0
 20 21  2  0
 21 22  1  0
 22 23  2  0
 23 24  1  0
 24 25  1  0
 24 26  1  0
 19 27  1  0
 13  4  1  0
 24 15  1  0
 12  7  1  0
 23 18  1  0
  1 28  1  0
  1 29  1  0
  9 30  1  0
 10 31  1  0
 11 32  1  0
 14 33  1  0
 14 34  1  0
 16 35  1  0
 16 36  1  0
 17 37  1  0
 17 38  1  0
 20 39  1  0
 22 40  1  0
 25 41  1  0
 25 42  1  0
 25 43  1  0
 26 44  1  0
 26 45  1  0
 26 46  1  0
 27 47  1  0
 27 48  1  0
 27 49  1  0
M  END
$$$$
