confid_0
     RDKit          3D

 41 44  0  0  0  0  0  0  0  0999 V2000
   24.5500   26.3900   36.2500 N   0  0  0  0  0  0  0  0  0  0  0  0
   25.6000   26.1300   35.4000 C   0  0  0  0  0  0  0  0  0  0  0  0
   25.4300   25.4300   34.4200 O   0  0  0  0  0  0  0  0  0  0  0  0
   26.9800   26.6300   35.7100 C   0  0  0  0  0  0  0  0  0  0  0  0
   27.3200   26.8200   36.9800 N   0  0  0  0  0  0  0  0  0  0  0  0
   28.4700   27.4000   37.3100 N   0  0  0  0  0  0  0  0  0  0  0  0
   29.4000   27.6300   36.3700 C   0  0  0  0  0  0  0  0  0  0  0  0
   30.6600   28.0500   36.8000 C   0  0  0  0  0  0  0  0  0  0  0  0
   31.5700   28.3600   35.7800 C   0  0  0  0  0  0  0  0  0  0  0  0
   31.3700   28.1000   34.4300 C   0  0  0  0  0  0  0  0  0  0  0  0
   30.1200   27.5900   34.0500 C   0  0  0  0  0  0  0  0  0  0  0  0
   29.1500   27.3400   35.0300 C   0  0  0  0  0  0  0  0  0  0  0  0
   27.8800   26.8900   34.6600 C   0  0  0  0  0  0  0  0  0  0  0  0
   27.4800   26.6100   33.3700 N   0  0  0  0  0  0  0  0  0  0  0  0
   31.0068   28.3131   38.2186 C   0  0  0  0  0  0  0  0  0  0  0  0
   32.1908   27.7685   38.7593 C   0  0  0  0  0  0  0  0  0  0  0  0
   32.5097   28.0356   40.0900 C   0  0  0  0  0  0  0  0  0  0  0  0
   33.7129   27.5644   40.8584 C   0  0  0  0  0  0  0  0  0  0  0  0
   33.4949   28.1350   42.1883 N   0  0  0  0  0  0  0  0  0  0  0  0
   32.3047   28.9118   42.1762 C   0  0  0  0  0  0  0  0  0  0  0  0
   31.8837   29.5771   43.1589 O   0  0  0  0  0  0  0  0  0  0  0  0
   31.6913   28.8289   40.8697 C   0  0  0  0  0  0  0  0  0  0  0  0
   30.5200   29.3974   40.3640 C   0  0  0  0  0  0  0  0  0  0  0  0
   29.4871   30.4191   41.3503 Cl  0  0  0  0  0  0  0  0  0  0  0  0
   30.1827   29.1359   39.0254 C   0  0  0  0  0  0  0  0  0  0  0  0
   34.4273   28.1656   43.1769 O   0  0  0  0  0  0  0  0  0  0  0  0
   34.1599   27.0678   44.0120 C   0  0  0  0  0  0  0  0  0  0  0  0
   23.6001   26.0040   36.0503 H   0  0  0  0  0  0  0  0  0  0  0  0
   24.6739   26.9932   37.0933 H   0  0  0  0  0  0  0  0  0  0  0  0
   32.5306   28.7759   36.0595 H   0  0  0  0  0  0  0  0  0  0  0  0
   32.1333   28.3208   33.6949 H   0  0  0  0  0  0  0  0  0  0  0  0
   29.9372   27.4181   32.9983 H   0  0  0  0  0  0  0  0  0  0  0  0
   26.5962   27.0149   32.9873 H   0  0  0  0  0  0  0  0  0  0  0  0
   28.1243   26.1388   32.6978 H   0  0  0  0  0  0  0  0  0  0  0  0
   32.8429   27.1449   38.1602 H   0  0  0  0  0  0  0  0  0  0  0  0
   34.6436   27.9732   40.4111 H   0  0  0  0  0  0  0  0  0  0  0  0
   33.7417   26.4558   40.9113 H   0  0  0  0  0  0  0  0  0  0  0  0
   29.2902   29.5864   38.6093 H   0  0  0  0  0  0  0  0  0  0  0  0
   34.2655   26.1109   43.4544 H   0  0  0  0  0  0  0  0  0  0  0  0
   33.1421   27.1442   44.4553 H   0  0  0  0  0  0  0  0  0  0  0  0
   34.8955   27.0634   44.8421 H   0  0  0  0  0  0  0  0  0  0  0  0
  1  2  1  0
  2  3  2  0
  2  4  1  0
  4  5  2  0
  5  6  1  0
  6  7  2  0
  7  8  1  0
  8  9  2  0
  9 10  1  0
 10 11  2  0
 11 12  1  0
 12 13  2  0
 13 14  1  0
  8 15  1  0
 15 16  2  0
 16 17  1  0
 17 18  1  0
 18 19  1  0
 19 20  1  0
 20 21  2  0
 20 22  1  0
 22 23  1  0
 23 24  1  0
 23 25  2  0
 19 26  1  0
 26 27  1  0
 13  4  1  0
 25 15  1  0
 12  7  1  0
 22 17  2  0
  1 28  1  0
  1 29  1  0
  9 30  1  0
 10 31  1  0
 11 32  1  0
 14 33  1  0
 14 34  1  0
 16 35  1  0
 18 36  1  0
 18 37  1  0
 25 38  1  0
 27 39  1  0
 27 40  1  0
 27 41  1  0
M  END
$$$$
confid_1
     RDKit          3D

 41 44  0  0  0  0  0  0  0  0999 V2000
   24.5500   26.3900   36.2500 N   0  0  0  0  0  0  0  0  0  0  0  0
   25.6000   26.1300   35.4000 C   0  0  0  0  0  0  0  0  0  0  0  0
   25.4300   25.4300   34.4200 O   0  0  0  0  0  0  0  0  0  0  0  0
   26.9800   26.6300   35.7100 C   0  0  0  0  0  0  0  0  0  0  0  0
   27.3200   26.8200   36.9800 N   0  0  0  0  0  0  0  0  0  0  0  0
   28.4700   27.4000   37.3100 N   0  0  0  0  0  0  0  0  0  0  0  0
   29.4000   27.6300   36.3700 C   0  0  0  0  0  0  0  0  0  0  0  0
   30.6600   28.0500   36.8000 C   0  0  0  0  0  0  0  0  0  0  0  0
   31.5700   28.3600   35.7800 C   0  0  0  0  0  0  0  0  0  0  0  0
   31.3700   28.1000   34.4300 C   0  0  0  0  0  0  0  0  0  0  0  0
   30.1200   27.5900   34.0500 C   0  0  0  0  0  0  0  0  0  0  0  0
   29.1500   27.3400   35.0300 C   0  0  0  0  0  0  0  0  0  0  0  0
   27.8800   26.8900   34.6600 C   0  0  0  0  0  0  0  0  0  0  0  0
   27.4800   26.6100   33.3700 N   0  0  0  0  0  0  0  0  0  0  0  0
   31.0056   28.2816   38.2252 C   0  0  0  0  0  0  0  0  0  0  0  0
   30.7971   27.2644   39.1818 C   0  0  0  0  0  0  0  0  0  0  0  0
   31.1418   27.5074   40.5106 C   0  0  0  0  0  0  0  0  0  0  0  0
   30.9955   26.5766   41.6820 C   0  0  0  0  0  0  0  0  0  0  0  0
   31.5431   27.3589   42.7909 N   0  0  0  0  0  0  0  0  0  0  0  0
   31.9212   28.6443   42.3165 C   0  0  0  0  0  0  0  0  0  0  0  0
   32.3726   29.5642   43.0483 O   0  0  0  0  0  0  0  0  0  0  0  0
   31.6824   28.7191   40.8927 C   0  0  0  0  0  0  0  0  0  0  0  0
   31.9089   29.7459   39.9732 C   0  0  0  0  0  0  0  0  0  0  0  0
   32.5989   31.2861   40.4581 Cl  0  0  0  0  0  0  0  0  0  0  0  0
   31.5684   29.5168   38.6295 C   0  0  0  0  0  0  0  0  0  0  0  0
   31.4287   27.0225   44.1029 O   0  0  0  0  0  0  0  0  0  0  0  0
   32.6259   26.3770   44.4553 C   0  0  0  0  0  0  0  0  0  0  0  0
   24.6739   26.9931   37.0934 H   0  0  0  0  0  0  0  0  0  0  0  0
   23.6001   26.0040   36.0503 H   0  0  0  0  0  0  0  0  0  0  0  0
   32.5389   28.7557   36.0594 H   0  0  0  0  0  0  0  0  0  0  0  0
   32.1351   28.3162   33.6954 H   0  0  0  0  0  0  0  0  0  0  0  0
   29.9376   27.4170   32.9984 H   0  0  0  0  0  0  0  0  0  0  0  0
   28.1242   26.1386   32.6979 H   0  0  0  0  0  0  0  0  0  0  0  0
   26.5962   27.0149   32.9873 H   0  0  0  0  0  0  0  0  0  0  0  0
   30.3883   26.3029   38.8969 H   0  0  0  0  0  0  0  0  0  0  0  0
   29.9243   26.3469   41.8637 H   0  0  0  0  0  0  0  0  0  0  0  0
   31.5884   25.6502   41.5301 H   0  0  0  0  0  0  0  0  0  0  0  0
   31.7296   30.3032   37.9023 H   0  0  0  0  0  0  0  0  0  0  0  0
   32.7641   25.4466   43.8615 H   0  0  0  0  0  0  0  0  0  0  0  0
   33.4980   27.0543   44.3176 H   0  0  0  0  0  0  0  0  0  0  0  0
   32.5773   26.0952   45.5271 H   0  0  0  0  0  0  0  0  0  0  0  0
  1  2  1  0
  2  3  2  0
  2  4  1  0
  4  5  2  0
  5  6  1  0
  6  7  2  0
  7  8  1  0
  8  9  2  0
  9 10  1  0
 10 11  2  0
 11 12  1  0
 12 13  2  0
 13 14  1  0
  8 15  1  0
 15 16  2  0
 16 17  1  0
 17 18  1  0
 18 19  1  0
 19 20  1  0
 20 21  2  0
 20 22  1  0
 22 23  1  0
 23 24  1  0
 23 25  2  0
 19 26  1  0
 26 27  1  0
 13  4  1  0
 25 15  1  0
 12  7  1  0
 22 17  2  0
  1 28  1  0
  1 29  1  0
  9 30  1  0
 10 31  1  0
 11 32  1  0
 14 33  1  0
 14 34  1  0
 16 35  1  0
 18 36  1  0
 18 37  1  0
 25 38  1  0
 27 39  1  0
 27 40  1  0
 27 41  1  0
M  END
$$$$
confid_2
     RDKit          3D

 41 44  0  0  0  0  0  0  0  0999 V2000
   24.5500   26.3900   36.2500 N   0  0  0  0  0  0  0  0  0  0  0  0
   25.6000   26.1300   35.4000 C   0  0  0  0  0  0  0  0  0  0  0  0
   25.4300   25.4300   34.4200 O   0  0  0  0  0  0  0  0  0  0  0  0
   26.9800   26.6300   35.7100 C   0  0  0  0  0  0  0  0  0  0  0  0
   27.3200   26.8200   36.9800 N   0  0  0  0  0  0  0  0  0  0  0  0
   28.4700   27.4000   37.3100 N   0  0  0  0  0  0  0  0  0  0  0  0
   29.4000   27.6300   36.3700 C   0  0  0  0  0  0  0  0  0  0  0  0
   30.6600   28.0500   36.8000 C   0  0  0  0  0  0  0  0  0  0  0  0
   31.5700   28.3600   35.7800 C   0  0  0  0  0  0  0  0  0  0  0  0
   31.3700   28.1000   34.4300 C   0  0  0  0  0  0  0  0  0  0  0  0
   30.1200   27.5900   34.0500 C   0  0  0  0  0  0  0  0  0  0  0  0
   29.1500   27.3400   35.0300 C   0  0  0  0  0  0  0  0  0  0  0  0
   27.8800   26.8900   34.6600 C   0  0  0  0  0  0  0  0  0  0  0  0
   27.4800   26.6100   33.3700 N   0  0  0  0  0  0  0  0  0  0  0  0
   31.0053   28.2821   38.2251 C   0  0  0  0  0  0  0  0  0  0  0  0
   31.5664   29.5138   38.6262 C   0  0  0  0  0  0  0  0  0  0  0  0
   31.8892   29.7023   39.9694 C   0  0  0  0  0  0  0  0  0  0  0  0
   32.4942   30.9224   40.6059 C   0  0  0  0  0  0  0  0  0  0  0  0
   32.5778   30.5467   42.0178 N   0  0  0  0  0  0  0  0  0  0  0  0
   32.1161   29.2118   42.1761 C   0  0  0  0  0  0  0  0  0  0  0  0
   32.1216   28.5859   43.2688 O   0  0  0  0  0  0  0  0  0  0  0  0
   31.6744   28.7025   40.8973 C   0  0  0  0  0  0  0  0  0  0  0  0
   31.1313   27.4676   40.5353 C   0  0  0  0  0  0  0  0  0  0  0  0
   30.8675   26.1920   41.7128 Cl  0  0  0  0  0  0  0  0  0  0  0  0
   30.7983   27.2622   39.1859 C   0  0  0  0  0  0  0  0  0  0  0  0
   33.2612   31.2449   42.9628 O   0  0  0  0  0  0  0  0  0  0  0  0
   32.3198   32.0562   43.6184 C   0  0  0  0  0  0  0  0  0  0  0  0
   24.6739   26.9931   37.0934 H   0  0  0  0  0  0  0  0  0  0  0  0
   23.6001   26.0040   36.0503 H   0  0  0  0  0  0  0  0  0  0  0  0
   32.5387   28.7560   36.0594 H   0  0  0  0  0  0  0  0  0  0  0  0
   32.1351   28.3163   33.6954 H   0  0  0  0  0  0  0  0  0  0  0  0
   29.9376   27.4171   32.9984 H   0  0  0  0  0  0  0  0  0  0  0  0
   26.5962   27.0149   32.9873 H   0  0  0  0  0  0  0  0  0  0  0  0
   28.1242   26.1386   32.6978 H   0  0  0  0  0  0  0  0  0  0  0  0
   31.7369   30.3102   37.9124 H   0  0  0  0  0  0  0  0  0  0  0  0
   31.8347   31.8063   40.4776 H   0  0  0  0  0  0  0  0  0  0  0  0
   33.5091   31.1112   40.1963 H   0  0  0  0  0  0  0  0  0  0  0  0
   30.3921   26.3052   38.8823 H   0  0  0  0  0  0  0  0  0  0  0  0
   32.8380   32.6367   44.4089 H   0  0  0  0  0  0  0  0  0  0  0  0
   31.5334   31.4380   44.1059 H   0  0  0  0  0  0  0  0  0  0  0  0
   31.8570   32.7780   42.9097 H   0  0  0  0  0  0  0  0  0  0  0  0
  1  2  1  0
  2  3  2  0
  2  4  1  0
  4  5  2  0
  5  6  1  0
  6  7  2  0
  7  8  1  0
  8  9  2  0
  9 10  1  0
 10 11  2  0
 11 12  1  0
 12 13  2  0
 13 14  1  0
  8 15  1  0
 15 16  2  0
 16 17  1  0
 17 18  1  0
 18 19  1  0
 19 20  1  0
 20 21  2  0
 20 22  1  0
 22 23  1  0
 23 24  1  0
 23 25  2  0
 19 26  1  0
 26 27  1  0
 13  4  1  0
 25 15  1  0
 12  7  1  0
 22 17  2  0
  1 28  1  0
  1 29  1  0
  9 30  1  0
 10 31  1  0
 11 32  1  0
 14 33  1  0
 14 34  1  0
 16 35  1  0
 18 36  1  0
 18 37  1  0
 25 38  1  0
 27 39  1  0
 27 40  1  0
 27 41  1  0
M  END
$$$$
confid_3
     RDKit          3D

 41 44  0  0  0  0  0  0  0  0999 V2000
   24.5500   26.3900   36.2500 N   0  0  0  0  0  0  0  0  0  0  0  0
   25.6000   26.1300   35.4000 C   0  0  0  0  0  0  0  0  0  0  0  0
   25.4300   25.4300   34.4200 O   0  0  0  0  0  0  0  0  0  0  0  0
   26.9800   26.6300   35.7100 C   0  0  0  0  0  0  0  0  0  0  0  0
   27.3200   26.8200   36.9800 N   0  0  0  0  0  0  0  0  0  0  0  0
   28.4700   27.4000   37.3100 N   0  0  0  0  0  0  0  0  0  0  0  0
   29.4000   27.6300   36.3700 C   0  0  0  0  0  0  0  0  0  0  0  0
   30.6600   28.0500   36.8000 C   0  0  0  0  0  0  0  0  0  0  0  0
   31.5700   28.3600   35.7800 C   0  0  0  0  0  0  0  0  0  0  0  0
   31.3700   28.1000   34.4300 C   0  0  0  0  0  0  0  0  0  0  0  0
   30.1200   27.5900   34.0500 C   0  0  0  0  0  0  0  0  0  0  0  0
   29.1500   27.3400   35.0300 C   0  0  0  0  0  0  0  0  0  0  0  0
   27.8800   26.8900   34.6600 C   0  0  0  0  0  0  0  0  0  0  0  0
   27.4800   26.6100   33.3700 N   0  0  0  0  0  0  0  0  0  0  0  0
   31.0054   28.2822   38.2251 C   0  0  0  0  0  0  0  0  0  0  0  0
   31.5657   29.5143   38.6260 C   0  0  0  0  0  0  0  0  0  0  0  0
   31.8910   29.7022   39.9687 C   0  0  0  0  0  0  0  0  0  0  0  0
   32.4753   30.9306   40.6088 C   0  0  0  0  0  0  0  0  0  0  0  0
   32.6169   30.5326   42.0099 N   0  0  0  0  0  0  0  0  0  0  0  0
   32.1087   29.2158   42.1773 C   0  0  0  0  0  0  0  0  0  0  0  0
   32.0395   28.6193   43.2840 O   0  0  0  0  0  0  0  0  0  0  0  0
   31.6742   28.7034   40.8972 C   0  0  0  0  0  0  0  0  0  0  0  0
   31.1282   27.4696   40.5361 C   0  0  0  0  0  0  0  0  0  0  0  0
   30.8620   26.1952   41.7144 Cl  0  0  0  0  0  0  0  0  0  0  0  0
   30.7973   27.2630   39.1864 C   0  0  0  0  0  0  0  0  0  0  0  0
   32.9034   31.3853   43.0289 O   0  0  0  0  0  0  0  0  0  0  0  0
   34.2880   31.2927   43.2496 C   0  0  0  0  0  0  0  0  0  0  0  0
   23.6001   26.0040   36.0503 H   0  0  0  0  0  0  0  0  0  0  0  0
   24.6739   26.9931   37.0934 H   0  0  0  0  0  0  0  0  0  0  0  0
   32.5387   28.7561   36.0594 H   0  0  0  0  0  0  0  0  0  0  0  0
   32.1350   28.3163   33.6954 H   0  0  0  0  0  0  0  0  0  0  0  0
   29.9376   27.4171   32.9984 H   0  0  0  0  0  0  0  0  0  0  0  0
   26.5962   27.0149   32.9873 H   0  0  0  0  0  0  0  0  0  0  0  0
   28.1242   26.1386   32.6978 H   0  0  0  0  0  0  0  0  0  0  0  0
   31.7323   30.3120   37.9127 H   0  0  0  0  0  0  0  0  0  0  0  0
   31.7728   31.7861   40.5199 H   0  0  0  0  0  0  0  0  0  0  0  0
   33.4666   31.1733   40.1717 H   0  0  0  0  0  0  0  0  0  0  0  0
   30.3907   26.3060   38.8831 H   0  0  0  0  0  0  0  0  0  0  0  0
   34.5762   30.2569   43.5365 H   0  0  0  0  0  0  0  0  0  0  0  0
   34.5621   31.9683   44.0856 H   0  0  0  0  0  0  0  0  0  0  0  0
   34.8552   31.6140   42.3482 H   0  0  0  0  0  0  0  0  0  0  0  0
  1  2  1  0
  2  3  2  0
  2  4  1  0
  4  5  2  0
  5  6  1  0
  6  7  2  0
  7  8  1  0
  8  9  2  0
  9 10  1  0
 10 11  2  0
 11 12  1  0
 12 13  2  0
 13 14  1  0
  8 15  1  0
 15 16  2  0
 16 17  1  0
 17 18  1  0
 18 19  1  0
 19 20  1  0
 20 21  2  0
 20 22  1  0
 22 23  1  0
 23 24  1  0
 23 25  2  0
 19 26  1  0
 26 27  1  0
 13  4  1  0
 25 15  1  0
 12  7  1  0
 22 17  2  0
  1 28  1  0
  1 29  1  0
  9 30  1  0
 10 31  1  0
 11 32  1  0
 14 33  1  0
 14 34  1  0
 16 35  1  0
 18 36  1  0
 18 37  1  0
 25 38  1  0
 27 39  1  0
 27 40  1  0
 27 41  1  0
M  END
$$$$
confid_4
     RDKit          3D

 41 44  0  0  0  0  0  0  0  0999 V2000
   24.5500   26.3900   36.2500 N   0  0  0  0  0  0  0  0  0  0  0  0
   25.6000   26.1300   35.4000 C   0  0  0  0  0  0  0  0  0  0  0  0
   25.4300   25.4300   34.4200 O   0  0  0  0  0  0  0  0  0  0  0  0
   26.9800   26.6300   35.7100 C   0  0  0  0  0  0  0  0  0  0  0  0
   27.3200   26.8200   36.9800 N   0  0  0  0  0  0  0  0  0  0  0  0
   28.4700   27.4000   37.3100 N   0  0  0  0  0  0  0  0  0  0  0  0
   29.4000   27.6300   36.3700 C   0  0  0  0  0  0  0  0  0  0  0  0
   30.6600   28.0500   36.8000 C   0  0  0  0  0  0  0  0  0  0  0  0
   31.5700   28.3600   35.7800 C   0  0  0  0  0  0  0  0  0  0  0  0
   31.3700   28.1000   34.4300 C   0  0  0  0  0  0  0  0  0  0  0  0
   30.1200   27.5900   34.0500 C   0  0  0  0  0  0  0  0  0  0  0  0
   29.1500   27.3400   35.0300 C   0  0  0  0  0  0  0  0  0  0  0  0
   27.8800   26.8900   34.6600 C   0  0  0  0  0  0  0  0  0  0  0  0
   27.4800   26.6100   33.3700 N   0  0  0  0  0  0  0  0  0  0  0  0
   31.0055   28.2814   38.2253 C   0  0  0  0  0  0  0  0  0  0  0  0
   30.7966   27.2642   39.1816 C   0  0  0  0  0  0  0  0  0  0  0  0
   31.1389   27.5076   40.5110 C   0  0  0  0  0  0  0  0  0  0  0  0
   31.0122   26.5689   41.6783 C   0  0  0  0  0  0  0  0  0  0  0  0
   31.5022   27.3730   42.7985 N   0  0  0  0  0  0  0  0  0  0  0  0
   31.9283   28.6401   42.3154 C   0  0  0  0  0  0  0  0  0  0  0  0
   32.4552   29.5305   43.0331 O   0  0  0  0  0  0  0  0  0  0  0  0
   31.6827   28.7180   40.8929 C   0  0  0  0  0  0  0  0  0  0  0  0
   31.9134   29.7434   39.9729 C   0  0  0  0  0  0  0  0  0  0  0  0
   32.6073   31.2819   40.4575 Cl  0  0  0  0  0  0  0  0  0  0  0  0
   31.5708   29.5155   38.6295 C   0  0  0  0  0  0  0  0  0  0  0  0
   31.7838   26.8832   44.0348 O   0  0  0  0  0  0  0  0  0  0  0  0
   30.6544   27.1366   44.8313 C   0  0  0  0  0  0  0  0  0  0  0  0
   24.6739   26.9931   37.0934 H   0  0  0  0  0  0  0  0  0  0  0  0
   23.6001   26.0040   36.0503 H   0  0  0  0  0  0  0  0  0  0  0  0
   32.5389   28.7556   36.0594 H   0  0  0  0  0  0  0  0  0  0  0  0
   32.1351   28.3162   33.6954 H   0  0  0  0  0  0  0  0  0  0  0  0
   29.9376   27.4170   32.9984 H   0  0  0  0  0  0  0  0  0  0  0  0
   26.5962   27.0149   32.9873 H   0  0  0  0  0  0  0  0  0  0  0  0
   28.1242   26.1386   32.6979 H   0  0  0  0  0  0  0  0  0  0  0  0
   30.3907   26.3017   38.8959 H   0  0  0  0  0  0  0  0  0  0  0  0
   31.6582   25.6776   41.5317 H   0  0  0  0  0  0  0  0  0  0  0  0
   29.9530   26.2790   41.8421 H   0  0  0  0  0  0  0  0  0  0  0  0
   31.7333   30.3017   37.9024 H   0  0  0  0  0  0  0  0  0  0  0  0
   30.8490   26.7603   45.8564 H   0  0  0  0  0  0  0  0  0  0  0  0
   30.4526   28.2288   44.8988 H   0  0  0  0  0  0  0  0  0  0  0  0
   29.7619   26.6046   44.4338 H   0  0  0  0  0  0  0  0  0  0  0  0
  1  2  1  0
  2  3  2  0
  2  4  1  0
  4  5  2  0
  5  6  1  0
  6  7  2  0
  7  8  1  0
  8  9  2  0
  9 10  1  0
 10 11  2  0
 11 12  1  0
 12 13  2  0
 13 14  1  0
  8 15  1  0
 15 16  2  0
 16 17  1  0
 17 18  1  0
 18 19  1  0
 19 20  1  0
 20 21  2  0
 20 22  1  0
 22 23  1  0
 23 24  1  0
 23 25  2  0
 19 26  1  0
 26 27  1  0
 13  4  1  0
 25 15  1  0
 12  7  1  0
 22 17  2  0
  1 28  1  0
  1 29  1  0
  9 30  1  0
 10 31  1  0
 11 32  1  0
 14 33  1  0
 14 34  1  0
 16 35  1  0
 18 36  1  0
 18 37  1  0
 25 38  1  0
 27 39  1  0
 27 40  1  0
 27 41  1  0
M  END
$$$$
confid_5
     RDKit          3D

 41 44  0  0  0  0  0  0  0  0999 V2000
   24.5500   26.3900   36.2500 N   0  0  0  0  0  0  0  0  0  0  0  0
   25.6000   26.1300   35.4000 C   0  0  0  0  0  0  0  0  0  0  0  0
   25.4300   25.4300   34.4200 O   0  0  0  0  0  0  0  0  0  0  0  0
   26.9800   26.6300   35.7100 C   0  0  0  0  0  0  0  0  0  0  0  0
   27.3200   26.8200   36.9800 N   0  0  0  0  0  0  0  0  0  0  0  0
   28.4700   27.4000   37.3100 N   0  0  0  0  0  0  0  0  0  0  0  0
   29.4000   27.6300   36.3700 C   0  0  0  0  0  0  0  0  0  0  0  0
   30.6600   28.0500   36.8000 C   0  0  0  0  0  0  0  0  0  0  0  0
   31.5700   28.3600   35.7800 C   0  0  0  0  0  0  0  0  0  0  0  0
   31.3700   28.1000   34.4300 C   0  0  0  0  0  0  0  0  0  0  0  0
   30.1200   27.5900   34.0500 C   0  0  0  0  0  0  0  0  0  0  0  0
   29.1500   27.3400   35.0300 C   0  0  0  0  0  0  0  0  0  0  0  0
   27.8800   26.8900   34.6600 C   0  0  0  0  0  0  0  0  0  0  0  0
   27.4800   26.6100   33.3700 N   0  0  0  0  0  0  0  0  0  0  0  0
   31.0071   28.3131   38.2186 C   0  0  0  0  0  0  0  0  0  0  0  0
   30.1827   29.1301   39.0231 C   0  0  0  0  0  0  0  0  0  0  0  0
   30.5533   29.3657   40.3463 C   0  0  0  0  0  0  0  0  0  0  0  0
   29.8236   30.1880   41.3716 C   0  0  0  0  0  0  0  0  0  0  0  0
   30.6943   30.0954   42.5442 N   0  0  0  0  0  0  0  0  0  0  0  0
   31.7989   29.2531   42.2430 C   0  0  0  0  0  0  0  0  0  0  0  0
   32.6925   28.9345   43.0711 O   0  0  0  0  0  0  0  0  0  0  0  0
   31.7092   28.8184   40.8672 C   0  0  0  0  0  0  0  0  0  0  0  0
   32.5542   28.0154   40.0977 C   0  0  0  0  0  0  0  0  0  0  0  0
   34.0284   27.3258   40.7571 Cl  0  0  0  0  0  0  0  0  0  0  0  0
   32.1957   27.7691   38.7618 C   0  0  0  0  0  0  0  0  0  0  0  0
   30.3491   30.4991   43.7954 O   0  0  0  0  0  0  0  0  0  0  0  0
   30.8845   31.7876   43.9610 C   0  0  0  0  0  0  0  0  0  0  0  0
   24.6739   26.9932   37.0934 H   0  0  0  0  0  0  0  0  0  0  0  0
   23.6001   26.0039   36.0504 H   0  0  0  0  0  0  0  0  0  0  0  0
   32.5310   28.7749   36.0595 H   0  0  0  0  0  0  0  0  0  0  0  0
   32.1352   28.3155   33.6954 H   0  0  0  0  0  0  0  0  0  0  0  0
   29.9364   27.3925   33.0016 H   0  0  0  0  0  0  0  0  0  0  0  0
   27.5826   27.3394   32.6301 H   0  0  0  0  0  0  0  0  0  0  0  0
   27.4182   25.6173   33.0515 H   0  0  0  0  0  0  0  0  0  0  0  0
   29.2837   29.5844   38.6259 H   0  0  0  0  0  0  0  0  0  0  0  0
   28.8308   29.7418   41.5920 H   0  0  0  0  0  0  0  0  0  0  0  0
   29.7290   31.2436   41.0406 H   0  0  0  0  0  0  0  0  0  0  0  0
   32.8357   27.1471   38.1477 H   0  0  0  0  0  0  0  0  0  0  0  0
   31.9931   31.7726   43.8653 H   0  0  0  0  0  0  0  0  0  0  0  0
   30.6336   32.1501   44.9789 H   0  0  0  0  0  0  0  0  0  0  0  0
   30.4447   32.4969   43.2256 H   0  0  0  0  0  0  0  0  0  0  0  0
  1  2  1  0
  2  3  2  0
  2  4  1  0
  4  5  2  0
  5  6  1  0
  6  7  2  0
  7  8  1  0
  8  9  2  0
  9 10  1  0
 10 11  2  0
 11 12  1  0
 12 13  2  0
 13 14  1  0
  8 15  1  0
 15 16  2  0
 16 17  1  0
 17 18  1  0
 18 19  1  0
 19 20  1  0
 20 21  2  0
 20 22  1  0
 22 23  1  0
 23 24  1  0
 23 25  2  0
 19 26  1  0
 26 27  1  0
 13  4  1  0
 25 15  1  0
 12  7  1  0
 22 17  2  0
  1 28  1  0
  1 29  1  0
  9 30  1  0
 10 31  1  0
 11 32  1  0
 14 33  1  0
 14 34  1  0
 16 35  1  0
 18 36  1  0
 18 37  1  0
 25 38  1  0
 27 39  1  0
 27 40  1  0
 27 41  1  0
M  END
$$$$
confid_6
     RDKit          3D

 41 44  0  0  0  0  0  0  0  0999 V2000
   24.5500   26.3900   36.2500 N   0  0  0  0  0  0  0  0  0  0  0  0
   25.6000   26.1300   35.4000 C   0  0  0  0  0  0  0  0  0  0  0  0
   25.4300   25.4300   34.4200 O   0  0  0  0  0  0  0  0  0  0  0  0
   26.9800   26.6300   35.7100 C   0  0  0  0  0  0  0  0  0  0  0  0
   27.3200   26.8200   36.9800 N   0  0  0  0  0  0  0  0  0  0  0  0
   28.4700   27.4000   37.3100 N   0  0  0  0  0  0  0  0  0  0  0  0
   29.4000   27.6300   36.3700 C   0  0  0  0  0  0  0  0  0  0  0  0
   30.6600   28.0500   36.8000 C   0  0  0  0  0  0  0  0  0  0  0  0
   31.5700   28.3600   35.7800 C   0  0  0  0  0  0  0  0  0  0  0  0
   31.3700   28.1000   34.4300 C   0  0  0  0  0  0  0  0  0  0  0  0
   30.1200   27.5900   34.0500 C   0  0  0  0  0  0  0  0  0  0  0  0
   29.1500   27.3400   35.0300 C   0  0  0  0  0  0  0  0  0  0  0  0
   27.8800   26.8900   34.6600 C   0  0  0  0  0  0  0  0  0  0  0  0
   27.4800   26.6100   33.3700 N   0  0  0  0  0  0  0  0  0  0  0  0
   31.0069   28.3134   38.2186 C   0  0  0  0  0  0  0  0  0  0  0  0
   30.1819   29.1300   39.0229 C   0  0  0  0  0  0  0  0  0  0  0  0
   30.5509   29.3640   40.3469 C   0  0  0  0  0  0  0  0  0  0  0  0
   29.8318   30.2036   41.3656 C   0  0  0  0  0  0  0  0  0  0  0  0
   30.6701   30.0612   42.5566 N   0  0  0  0  0  0  0  0  0  0  0  0
   31.8018   29.2613   42.2406 C   0  0  0  0  0  0  0  0  0  0  0  0
   32.7375   29.0098   43.0449 O   0  0  0  0  0  0  0  0  0  0  0  0
   31.7087   28.8202   40.8671 C   0  0  0  0  0  0  0  0  0  0  0  0
   32.5563   28.0208   40.0966 C   0  0  0  0  0  0  0  0  0  0  0  0
   34.0330   27.3356   40.7550 Cl  0  0  0  0  0  0  0  0  0  0  0  0
   32.1970   27.7722   38.7613 C   0  0  0  0  0  0  0  0  0  0  0  0
   30.5458   30.8133   43.6819 O   0  0  0  0  0  0  0  0  0  0  0  0
   29.7811   30.0564   44.5855 C   0  0  0  0  0  0  0  0  0  0  0  0
   23.6001   26.0040   36.0503 H   0  0  0  0  0  0  0  0  0  0  0  0
   24.6739   26.9932   37.0933 H   0  0  0  0  0  0  0  0  0  0  0  0
   32.5305   28.7761   36.0594 H   0  0  0  0  0  0  0  0  0  0  0  0
   32.1332   28.3209   33.6949 H   0  0  0  0  0  0  0  0  0  0  0  0
   29.9372   27.4182   32.9982 H   0  0  0  0  0  0  0  0  0  0  0  0
   26.5962   27.0149   32.9873 H   0  0  0  0  0  0  0  0  0  0  0  0
   28.1243   26.1388   32.6978 H   0  0  0  0  0  0  0  0  0  0  0  0
   29.2845   29.5865   38.6246 H   0  0  0  0  0  0  0  0  0  0  0  0
   28.8124   29.8082   41.5584 H   0  0  0  0  0  0  0  0  0  0  0  0
   29.8000   31.2653   41.0411 H   0  0  0  0  0  0  0  0  0  0  0  0
   32.8380   27.1514   38.1471 H   0  0  0  0  0  0  0  0  0  0  0  0
   30.2899   29.0977   44.8308 H   0  0  0  0  0  0  0  0  0  0  0  0
   28.7655   29.8591   44.1767 H   0  0  0  0  0  0  0  0  0  0  0  0
   29.6657   30.6332   45.5259 H   0  0  0  0  0  0  0  0  0  0  0  0
  1  2  1  0
  2  3  2  0
  2  4  1  0
  4  5  2  0
  5  6  1  0
  6  7  2  0
  7  8  1  0
  8  9  2  0
  9 10  1  0
 10 11  2  0
 11 12  1  0
 12 13  2  0
 13 14  1  0
  8 15  1  0
 15 16  2  0
 16 17  1  0
 17 18  1  0
 18 19  1  0
 19 20  1  0
 20 21  2  0
 20 22  1  0
 22 23  1  0
 23 24  1  0
 23 25  2  0
 19 26  1  0
 26 27  1  0
 13  4  1  0
 25 15  1  0
 12  7  1  0
 22 17  2  0
  1 28  1  0
  1 29  1  0
  9 30  1  0
 10 31  1  0
 11 32  1  0
 14 33  1  0
 14 34  1  0
 16 35  1  0
 18 36  1  0
 18 37  1  0
 25 38  1  0
 27 39  1  0
 27 40  1  0
 27 41  1  0
M  END
$$$$
confid_7
     RDKit          3D

 41 44  0  0  0  0  0  0  0  0999 V2000
   24.5500   26.3900   36.2500 N   0  0  0  0  0  0  0  0  0  0  0  0
   25.6000   26.1300   35.4000 C   0  0  0  0  0  0  0  0  0  0  0  0
   25.4300   25.4300   34.4200 O   0  0  0  0  0  0  0  0  0  0  0  0
   26.9800   26.6300   35.7100 C   0  0  0  0  0  0  0  0  0  0  0  0
   27.3200   26.8200   36.9800 N   0  0  0  0  0  0  0  0  0  0  0  0
   28.4700   27.4000   37.3100 N   0  0  0  0  0  0  0  0  0  0  0  0
   29.4000   27.6300   36.3700 C   0  0  0  0  0  0  0  0  0  0  0  0
   30.6600   28.0500   36.8000 C   0  0  0  0  0  0  0  0  0  0  0  0
   31.5700   28.3600   35.7800 C   0  0  0  0  0  0  0  0  0  0  0  0
   31.3700   28.1000   34.4300 C   0  0  0  0  0  0  0  0  0  0  0  0
   30.1200   27.5900   34.0500 C   0  0  0  0  0  0  0  0  0  0  0  0
   29.1500   27.3400   35.0300 C   0  0  0  0  0  0  0  0  0  0  0  0
   27.8800   26.8900   34.6600 C   0  0  0  0  0  0  0  0  0  0  0  0
   27.4800   26.6100   33.3700 N   0  0  0  0  0  0  0  0  0  0  0  0
   31.0070   28.3131   38.2185 C   0  0  0  0  0  0  0  0  0  0  0  0
   32.1904   27.7675   38.7593 C   0  0  0  0  0  0  0  0  0  0  0  0
   32.5109   28.0365   40.0893 C   0  0  0  0  0  0  0  0  0  0  0  0
   33.7025   27.5466   40.8640 C   0  0  0  0  0  0  0  0  0  0  0  0
   33.5170   28.1682   42.1758 N   0  0  0  0  0  0  0  0  0  0  0  0
   32.3011   28.9043   42.1785 C   0  0  0  0  0  0  0  0  0  0  0  0
   31.8387   29.5035   43.1848 O   0  0  0  0  0  0  0  0  0  0  0  0
   31.6916   28.8279   40.8698 C   0  0  0  0  0  0  0  0  0  0  0  0
   30.5187   29.3943   40.3652 C   0  0  0  0  0  0  0  0  0  0  0  0
   29.4847   30.4137   41.3526 Cl  0  0  0  0  0  0  0  0  0  0  0  0
   30.1824   29.1348   39.0260 C   0  0  0  0  0  0  0  0  0  0  0  0
   34.2288   27.8483   43.2887 O   0  0  0  0  0  0  0  0  0  0  0  0
   35.2545   28.8028   43.3946 C   0  0  0  0  0  0  0  0  0  0  0  0
   23.6001   26.0040   36.0503 H   0  0  0  0  0  0  0  0  0  0  0  0
   24.6739   26.9932   37.0933 H   0  0  0  0  0  0  0  0  0  0  0  0
   32.5306   28.7758   36.0595 H   0  0  0  0  0  0  0  0  0  0  0  0
   32.1333   28.3208   33.6949 H   0  0  0  0  0  0  0  0  0  0  0  0
   29.9372   27.4181   32.9983 H   0  0  0  0  0  0  0  0  0  0  0  0
   26.5962   27.0149   32.9873 H   0  0  0  0  0  0  0  0  0  0  0  0
   28.1243   26.1388   32.6978 H   0  0  0  0  0  0  0  0  0  0  0  0
   32.8402   27.1404   38.1612 H   0  0  0  0  0  0  0  0  0  0  0  0
   34.6491   27.8946   40.3996 H   0  0  0  0  0  0  0  0  0  0  0  0
   33.6784   26.4400   40.9546 H   0  0  0  0  0  0  0  0  0  0  0  0
   29.2897   29.5852   38.6102 H   0  0  0  0  0  0  0  0  0  0  0  0
   35.9326   28.7550   42.5140 H   0  0  0  0  0  0  0  0  0  0  0  0
   35.8545   28.5828   44.3012 H   0  0  0  0  0  0  0  0  0  0  0  0
   34.8342   29.8276   43.5011 H   0  0  0  0  0  0  0  0  0  0  0  0
  1  2  1  0
  2  3  2  0
  2  4  1  0
  4  5  2  0
  5  6  1  0
  6  7  2  0
  7  8  1  0
  8  9  2  0
  9 10  1  0
 10 11  2  0
 11 12  1  0
 12 13  2  0
 13 14  1  0
  8 15  1  0
 15 16  2  0
 16 17  1  0
 17 18  1  0
 18 19  1  0
 19 20  1  0
 20 21  2  0
 20 22  1  0
 22 23  1  0
 23 24  1  0
 23 25  2  0
 19 26  1  0
 26 27  1  0
 13  4  1  0
 25 15  1  0
 12  7  1  0
 22 17  2  0
  1 28  1  0
  1 29  1  0
  9 30  1  0
 10 31  1  0
 11 32  1  0
 14 33  1  0
 14 34  1  0
 16 35  1  0
 18 36  1  0
 18 37  1  0
 25 38  1  0
 27 39  1  0
 27 40  1  0
 27 41  1  0
M  END
$$$$
