confid_0
     RDKit          3D

 44 47  0  0  0  0  0  0  0  0999 V2000
   24.5700   26.8800   35.5900 N   0  0  0  0  0  0  0  0  0  0  0  0
   25.5000   26.4000   34.6900 C   0  0  0  0  0  0  0  0  0  0  0  0
   25.1700   25.5200   33.9100 O   0  0  0  0  0  0  0  0  0  0  0  0
   26.8400   27.0200   34.7400 C   0  0  0  0  0  0  0  0  0  0  0  0
   27.3800   27.2800   35.9400 N   0  0  0  0  0  0  0  0  0  0  0  0
   28.6200   27.7400   36.0300 N   0  0  0  0  0  0  0  0  0  0  0  0
   29.3800   28.0000   34.9600 C   0  0  0  0  0  0  0  0  0  0  0  0
   30.6700   28.5000   35.1300 C   0  0  0  0  0  0  0  0  0  0  0  0
   31.5400   28.6100   34.0300 C   0  0  0  0  0  0  0  0  0  0  0  0
   31.0900   28.2200   32.7700 C   0  0  0  0  0  0  0  0  0  0  0  0
   29.8000   27.7000   32.6000 C   0  0  0  0  0  0  0  0  0  0  0  0
   28.9600   27.5500   33.7100 C   0  0  0  0  0  0  0  0  0  0  0  0
   27.6600   27.0300   33.5900 C   0  0  0  0  0  0  0  0  0  0  0  0
   27.1600   26.7400   32.3400 N   0  0  0  0  0  0  0  0  0  0  0  0
   23.1777   26.5066   35.5782 C   0  0  0  0  0  0  0  0  0  0  0  0
   22.5760   26.2246   34.3901 N   0  0  0  0  0  0  0  0  0  0  0  0
   21.2586   25.9252   34.2918 C   0  0  0  0  0  0  0  0  0  0  0  0
   20.4546   25.9304   35.4314 C   0  0  0  0  0  0  0  0  0  0  0  0
   18.9770   25.6534   35.3354 C   0  0  0  0  0  0  0  0  0  0  0  0
   18.5168   25.0296   36.5199 O   0  0  0  0  0  0  0  0  0  0  0  0
   18.6318   25.9131   37.6247 C   0  0  0  0  0  0  0  0  0  0  0  0
   18.1261   25.1897   38.8728 C   0  0  0  0  0  0  0  0  0  0  0  0
   20.0641   26.3722   37.8162 C   0  0  0  0  0  0  0  0  0  0  0  0
   20.3881   26.9614   38.8827 O   0  0  0  0  0  0  0  0  0  0  0  0
   21.0127   26.2628   36.6756 C   0  0  0  0  0  0  0  0  0  0  0  0
   22.4128   26.4899   36.7727 C   0  0  0  0  0  0  0  0  0  0  0  0
   23.0876   26.6788   38.1119 C   0  0  0  0  0  0  0  0  0  0  0  0
   24.8667   27.6023   36.2850 H   0  0  0  0  0  0  0  0  0  0  0  0
   31.0179   28.7883   36.1144 H   0  0  0  0  0  0  0  0  0  0  0  0
   32.5424   28.9969   34.1597 H   0  0  0  0  0  0  0  0  0  0  0  0
   31.7487   28.3095   31.9157 H   0  0  0  0  0  0  0  0  0  0  0  0
   29.5077   27.3813   31.6086 H   0  0  0  0  0  0  0  0  0  0  0  0
   27.2453   27.4248   31.5561 H   0  0  0  0  0  0  0  0  0  0  0  0
   26.7446   25.8077   32.1268 H   0  0  0  0  0  0  0  0  0  0  0  0
   20.8359   25.7027   33.3206 H   0  0  0  0  0  0  0  0  0  0  0  0
   18.4224   26.5976   35.1343 H   0  0  0  0  0  0  0  0  0  0  0  0
   18.7793   24.9653   34.4861 H   0  0  0  0  0  0  0  0  0  0  0  0
   17.9852   26.8063   37.4657 H   0  0  0  0  0  0  0  0  0  0  0  0
   17.0855   24.8384   38.7071 H   0  0  0  0  0  0  0  0  0  0  0  0
   18.1258   25.8744   39.7478 H   0  0  0  0  0  0  0  0  0  0  0  0
   18.7677   24.3104   39.0969 H   0  0  0  0  0  0  0  0  0  0  0  0
   22.6479   25.9986   38.8702 H   0  0  0  0  0  0  0  0  0  0  0  0
   24.1633   26.4113   38.0758 H   0  0  0  0  0  0  0  0  0  0  0  0
   22.9840   27.7338   38.4409 H   0  0  0  0  0  0  0  0  0  0  0  0
  1  2  1  0
  2  3  2  0
  2  4  1  0
  4  5  2  0
  5  6  1  0
  6  7  2  0
  7  8  1  0
  8  9  2  0
  9 10  1  0
 10 11  2  0
 11 12  1  0
 12 13  2  0
 13 14  1  0
  1 15  1  0
 15 16  2  0
 16 17  1  0
 17 18  2  0
 18 19  1  0
 19 20  1  0
 20 21  1  0
 21 22  1  0
 21 23  1  0
 23 24  2  0
 23 25  1  0
 25 26  2  0
 26 27  1  0
 13  4  1  0
 26 15  1  0
 12  7  1  0
 25 18  1  0
  1 28  1  0
  8 29  1  0
  9 30  1  0
 10 31  1  0
 11 32  1  0
 14 33  1  0
 14 34  1  0
 17 35  1  0
 19 36  1  0
 19 37  1  0
 21 38  1  0
 22 39  1  0
 22 40  1  0
 22 41  1  0
 27 42  1  0
 27 43  1  0
 27 44  1  0
M  END
$$$$
confid_1
     RDKit          3D

 44 47  0  0  0  0  0  0  0  0999 V2000
   24.5700   26.8800   35.5900 N   0  0  0  0  0  0  0  0  0  0  0  0
   25.5000   26.4000   34.6900 C   0  0  0  0  0  0  0  0  0  0  0  0
   25.1700   25.5200   33.9100 O   0  0  0  0  0  0  0  0  0  0  0  0
   26.8400   27.0200   34.7400 C   0  0  0  0  0  0  0  0  0  0  0  0
   27.3800   27.2800   35.9400 N   0  0  0  0  0  0  0  0  0  0  0  0
   28.6200   27.7400   36.0300 N   0  0  0  0  0  0  0  0  0  0  0  0
   29.3800   28.0000   34.9600 C   0  0  0  0  0  0  0  0  0  0  0  0
   30.6700   28.5000   35.1300 C   0  0  0  0  0  0  0  0  0  0  0  0
   31.5400   28.6100   34.0300 C   0  0  0  0  0  0  0  0  0  0  0  0
   31.0900   28.2200   32.7700 C   0  0  0  0  0  0  0  0  0  0  0  0
   29.8000   27.7000   32.6000 C   0  0  0  0  0  0  0  0  0  0  0  0
   28.9600   27.5500   33.7100 C   0  0  0  0  0  0  0  0  0  0  0  0
   27.6600   27.0300   33.5900 C   0  0  0  0  0  0  0  0  0  0  0  0
   27.1600   26.7400   32.3400 N   0  0  0  0  0  0  0  0  0  0  0  0
   23.3375   26.1994   35.8981 C   0  0  0  0  0  0  0  0  0  0  0  0
   23.2957   24.8406   35.8251 N   0  0  0  0  0  0  0  0  0  0  0  0
   22.1943   24.1252   36.1565 C   0  0  0  0  0  0  0  0  0  0  0  0
   21.0540   24.7766   36.6263 C   0  0  0  0  0  0  0  0  0  0  0  0
   19.8384   23.9956   37.0524 C   0  0  0  0  0  0  0  0  0  0  0  0
   18.6634   24.7474   36.8118 O   0  0  0  0  0  0  0  0  0  0  0  0
   18.6358   25.9045   37.6331 C   0  0  0  0  0  0  0  0  0  0  0  0
   17.3532   26.6788   37.3293 C   0  0  0  0  0  0  0  0  0  0  0  0
   19.8542   26.7759   37.3989 C   0  0  0  0  0  0  0  0  0  0  0  0
   19.8769   27.9469   37.8654 O   0  0  0  0  0  0  0  0  0  0  0  0
   21.0587   26.1730   36.7679 C   0  0  0  0  0  0  0  0  0  0  0  0
   22.1911   26.9137   36.3317 C   0  0  0  0  0  0  0  0  0  0  0  0
   22.1754   28.4246   36.2951 C   0  0  0  0  0  0  0  0  0  0  0  0
   24.7883   27.7600   36.1105 H   0  0  0  0  0  0  0  0  0  0  0  0
   31.0179   28.7883   36.1144 H   0  0  0  0  0  0  0  0  0  0  0  0
   32.5424   28.9969   34.1597 H   0  0  0  0  0  0  0  0  0  0  0  0
   31.7487   28.3095   31.9157 H   0  0  0  0  0  0  0  0  0  0  0  0
   29.5077   27.3814   31.6086 H   0  0  0  0  0  0  0  0  0  0  0  0
   27.2453   27.4248   31.5562 H   0  0  0  0  0  0  0  0  0  0  0  0
   26.7451   25.8075   32.1268 H   0  0  0  0  0  0  0  0  0  0  0  0
   22.2170   23.0464   36.0724 H   0  0  0  0  0  0  0  0  0  0  0  0
   19.7715   23.0561   36.4635 H   0  0  0  0  0  0  0  0  0  0  0  0
   19.9230   23.7102   38.1252 H   0  0  0  0  0  0  0  0  0  0  0  0
   18.6059   25.6077   38.7065 H   0  0  0  0  0  0  0  0  0  0  0  0
   17.3554   27.0327   36.2758 H   0  0  0  0  0  0  0  0  0  0  0  0
   17.2545   27.5526   38.0083 H   0  0  0  0  0  0  0  0  0  0  0  0
   16.4721   26.0199   37.4818 H   0  0  0  0  0  0  0  0  0  0  0  0
   21.1819   28.7983   35.9726 H   0  0  0  0  0  0  0  0  0  0  0  0
   22.8882   28.8276   35.5473 H   0  0  0  0  0  0  0  0  0  0  0  0
   22.4273   28.8290   37.2976 H   0  0  0  0  0  0  0  0  0  0  0  0
  1  2  1  0
  2  3  2  0
  2  4  1  0
  4  5  2  0
  5  6  1  0
  6  7  2  0
  7  8  1  0
  8  9  2  0
  9 10  1  0
 10 11  2  0
 11 12  1  0
 12 13  2  0
 13 14  1  0
  1 15  1  0
 15 16  2  0
 16 17  1  0
 17 18  2  0
 18 19  1  0
 19 20  1  0
 20 21  1  0
 21 22  1  0
 21 23  1  0
 23 24  2  0
 23 25  1  0
 25 26  2  0
 26 27  1  0
 13  4  1  0
 26 15  1  0
 12  7  1  0
 25 18  1  0
  1 28  1  0
  8 29  1  0
  9 30  1  0
 10 31  1  0
 11 32  1  0
 14 33  1  0
 14 34  1  0
 17 35  1  0
 19 36  1  0
 19 37  1  0
 21 38  1  0
 22 39  1  0
 22 40  1  0
 22 41  1  0
 27 42  1  0
 27 43  1  0
 27 44  1  0
M  END
$$$$
confid_2
     RDKit          3D

 44 47  0  0  0  0  0  0  0  0999 V2000
   24.5700   26.8800   35.5900 N   0  0  0  0  0  0  0  0  0  0  0  0
   25.5000   26.4000   34.6900 C   0  0  0  0  0  0  0  0  0  0  0  0
   25.1700   25.5200   33.9100 O   0  0  0  0  0  0  0  0  0  0  0  0
   26.8400   27.0200   34.7400 C   0  0  0  0  0  0  0  0  0  0  0  0
   27.3800   27.2800   35.9400 N   0  0  0  0  0  0  0  0  0  0  0  0
   28.6200   27.7400   36.0300 N   0  0  0  0  0  0  0  0  0  0  0  0
   29.3800   28.0000   34.9600 C   0  0  0  0  0  0  0  0  0  0  0  0
   30.6700   28.5000   35.1300 C   0  0  0  0  0  0  0  0  0  0  0  0
   31.5400   28.6100   34.0300 C   0  0  0  0  0  0  0  0  0  0  0  0
   31.0900   28.2200   32.7700 C   0  0  0  0  0  0  0  0  0  0  0  0
   29.8000   27.7000   32.6000 C   0  0  0  0  0  0  0  0  0  0  0  0
   28.9600   27.5500   33.7100 C   0  0  0  0  0  0  0  0  0  0  0  0
   27.6600   27.0300   33.5900 C   0  0  0  0  0  0  0  0  0  0  0  0
   27.1600   26.7400   32.3400 N   0  0  0  0  0  0  0  0  0  0  0  0
   23.3365   26.2003   35.8954 C   0  0  0  0  0  0  0  0  0  0  0  0
   23.2981   24.8414   35.8335 N   0  0  0  0  0  0  0  0  0  0  0  0
   22.1967   24.1270   36.1656 C   0  0  0  0  0  0  0  0  0  0  0  0
   21.0516   24.7788   36.6247 C   0  0  0  0  0  0  0  0  0  0  0  0
   19.8482   23.9871   37.0642 C   0  0  0  0  0  0  0  0  0  0  0  0
   18.6476   24.7130   36.8603 O   0  0  0  0  0  0  0  0  0  0  0  0
   18.6175   25.9286   37.5987 C   0  0  0  0  0  0  0  0  0  0  0  0
   18.3748   25.6852   39.0945 C   0  0  0  0  0  0  0  0  0  0  0  0
   19.8421   26.7822   37.3657 C   0  0  0  0  0  0  0  0  0  0  0  0
   19.8346   27.9770   37.7667 O   0  0  0  0  0  0  0  0  0  0  0  0
   21.0524   26.1753   36.7541 C   0  0  0  0  0  0  0  0  0  0  0  0
   22.1861   26.9154   36.3163 C   0  0  0  0  0  0  0  0  0  0  0  0
   22.1673   28.4261   36.2626 C   0  0  0  0  0  0  0  0  0  0  0  0
   24.7895   27.7577   36.1139 H   0  0  0  0  0  0  0  0  0  0  0  0
   31.0178   28.7888   36.1143 H   0  0  0  0  0  0  0  0  0  0  0  0
   32.5416   28.9991   34.1593 H   0  0  0  0  0  0  0  0  0  0  0  0
   31.7454   28.3188   31.9142 H   0  0  0  0  0  0  0  0  0  0  0  0
   29.5013   27.4243   31.5992 H   0  0  0  0  0  0  0  0  0  0  0  0
   26.1711   26.9656   32.0920 H   0  0  0  0  0  0  0  0  0  0  0  0
   27.7096   26.1832   31.6493 H   0  0  0  0  0  0  0  0  0  0  0  0
   22.2238   23.0474   36.0930 H   0  0  0  0  0  0  0  0  0  0  0  0
   19.9605   23.6743   38.1238 H   0  0  0  0  0  0  0  0  0  0  0  0
   19.7832   23.0552   36.4631 H   0  0  0  0  0  0  0  0  0  0  0  0
   17.7456   26.5063   37.2225 H   0  0  0  0  0  0  0  0  0  0  0  0
   18.0926   26.6380   39.5914 H   0  0  0  0  0  0  0  0  0  0  0  0
   17.5444   24.9605   39.2300 H   0  0  0  0  0  0  0  0  0  0  0  0
   19.2857   25.2933   39.5936 H   0  0  0  0  0  0  0  0  0  0  0  0
   22.3828   28.8424   37.2688 H   0  0  0  0  0  0  0  0  0  0  0  0
   22.9030   28.8264   35.5361 H   0  0  0  0  0  0  0  0  0  0  0  0
   21.1843   28.7912   35.9007 H   0  0  0  0  0  0  0  0  0  0  0  0
  1  2  1  0
  2  3  2  0
  2  4  1  0
  4  5  2  0
  5  6  1  0
  6  7  2  0
  7  8  1  0
  8  9  2  0
  9 10  1  0
 10 11  2  0
 11 12  1  0
 12 13  2  0
 13 14  1  0
  1 15  1  0
 15 16  2  0
 16 17  1  0
 17 18  2  0
 18 19  1  0
 19 20  1  0
 20 21  1  0
 21 22  1  0
 21 23  1  0
 23 24  2  0
 23 25  1  0
 25 26  2  0
 26 27  1  0
 13  4  1  0
 26 15  1  0
 12  7  1  0
 25 18  1  0
  1 28  1  0
  8 29  1  0
  9 30  1  0
 10 31  1  0
 11 32  1  0
 14 33  1  0
 14 34  1  0
 17 35  1  0
 19 36  1  0
 19 37  1  0
 21 38  1  0
 22 39  1  0
 22 40  1  0
 22 41  1  0
 27 42  1  0
 27 43  1  0
 27 44  1  0
M  END
$$$$
confid_3
     RDKit          3D

 44 47  0  0  0  0  0  0  0  0999 V2000
   24.5700   26.8800   35.5900 N   0  0  0  0  0  0  0  0  0  0  0  0
   25.5000   26.4000   34.6900 C   0  0  0  0  0  0  0  0  0  0  0  0
   25.1700   25.5200   33.9100 O   0  0  0  0  0  0  0  0  0  0  0  0
   26.8400   27.0200   34.7400 C   0  0  0  0  0  0  0  0  0  0  0  0
   27.3800   27.2800   35.9400 N   0  0  0  0  0  0  0  0  0  0  0  0
   28.6200   27.7400   36.0300 N   0  0  0  0  0  0  0  0  0  0  0  0
   29.3800   28.0000   34.9600 C   0  0  0  0  0  0  0  0  0  0  0  0
   30.6700   28.5000   35.1300 C   0  0  0  0  0  0  0  0  0  0  0  0
   31.5400   28.6100   34.0300 C   0  0  0  0  0  0  0  0  0  0  0  0
   31.0900   28.2200   32.7700 C   0  0  0  0  0  0  0  0  0  0  0  0
   29.8000   27.7000   32.6000 C   0  0  0  0  0  0  0  0  0  0  0  0
   28.9600   27.5500   33.7100 C   0  0  0  0  0  0  0  0  0  0  0  0
   27.6600   27.0300   33.5900 C   0  0  0  0  0  0  0  0  0  0  0  0
   27.1600   26.7400   32.3400 N   0  0  0  0  0  0  0  0  0  0  0  0
   23.1785   26.5051   35.5773 C   0  0  0  0  0  0  0  0  0  0  0  0
   22.5733   26.2491   34.3864 N   0  0  0  0  0  0  0  0  0  0  0  0
   21.2546   25.9604   34.2858 C   0  0  0  0  0  0  0  0  0  0  0  0
   20.4447   25.9720   35.4223 C   0  0  0  0  0  0  0  0  0  0  0  0
   18.9822   25.6136   35.3059 C   0  0  0  0  0  0  0  0  0  0  0  0
   18.1916   26.2153   36.3180 O   0  0  0  0  0  0  0  0  0  0  0  0
   18.6425   25.8931   37.6266 C   0  0  0  0  0  0  0  0  0  0  0  0
   18.4063   24.4205   37.9885 C   0  0  0  0  0  0  0  0  0  0  0  0
   20.0809   26.2880   37.8314 C   0  0  0  0  0  0  0  0  0  0  0  0
   20.4482   26.6810   38.9707 O   0  0  0  0  0  0  0  0  0  0  0  0
   21.0163   26.2331   36.6788 C   0  0  0  0  0  0  0  0  0  0  0  0
   22.4200   26.4535   36.7746 C   0  0  0  0  0  0  0  0  0  0  0  0
   23.1068   26.5906   38.1149 C   0  0  0  0  0  0  0  0  0  0  0  0
   24.8637   27.6075   36.2809 H   0  0  0  0  0  0  0  0  0  0  0  0
   31.0179   28.7883   36.1144 H   0  0  0  0  0  0  0  0  0  0  0  0
   32.5424   28.9969   34.1597 H   0  0  0  0  0  0  0  0  0  0  0  0
   31.7487   28.3095   31.9157 H   0  0  0  0  0  0  0  0  0  0  0  0
   29.5077   27.3813   31.6086 H   0  0  0  0  0  0  0  0  0  0  0  0
   27.2453   27.4248   31.5561 H   0  0  0  0  0  0  0  0  0  0  0  0
   26.7446   25.8077   32.1268 H   0  0  0  0  0  0  0  0  0  0  0  0
   20.8339   25.7421   33.3126 H   0  0  0  0  0  0  0  0  0  0  0  0
   18.5983   25.9723   34.3272 H   0  0  0  0  0  0  0  0  0  0  0  0
   18.8581   24.5100   35.3052 H   0  0  0  0  0  0  0  0  0  0  0  0
   18.0273   26.4969   38.3291 H   0  0  0  0  0  0  0  0  0  0  0  0
   19.1256   23.7546   37.4668 H   0  0  0  0  0  0  0  0  0  0  0  0
   18.5363   24.2769   39.0825 H   0  0  0  0  0  0  0  0  0  0  0  0
   17.3711   24.1255   37.7156 H   0  0  0  0  0  0  0  0  0  0  0  0
   22.7262   25.8262   38.8232 H   0  0  0  0  0  0  0  0  0  0  0  0
   24.1972   26.4015   38.0531 H   0  0  0  0  0  0  0  0  0  0  0  0
   22.9387   27.6090   38.5230 H   0  0  0  0  0  0  0  0  0  0  0  0
  1  2  1  0
  2  3  2  0
  2  4  1  0
  4  5  2  0
  5  6  1  0
  6  7  2  0
  7  8  1  0
  8  9  2  0
  9 10  1  0
 10 11  2  0
 11 12  1  0
 12 13  2  0
 13 14  1  0
  1 15  1  0
 15 16  2  0
 16 17  1  0
 17 18  2  0
 18 19  1  0
 19 20  1  0
 20 21  1  0
 21 22  1  0
 21 23  1  0
 23 24  2  0
 23 25  1  0
 25 26  2  0
 26 27  1  0
 13  4  1  0
 26 15  1  0
 12  7  1  0
 25 18  1  0
  1 28  1  0
  8 29  1  0
  9 30  1  0
 10 31  1  0
 11 32  1  0
 14 33  1  0
 14 34  1  0
 17 35  1  0
 19 36  1  0
 19 37  1  0
 21 38  1  0
 22 39  1  0
 22 40  1  0
 22 41  1  0
 27 42  1  0
 27 43  1  0
 27 44  1  0
M  END
$$$$
confid_4
     RDKit          3D

 44 47  0  0  0  0  0  0  0  0999 V2000
   24.5700   26.8800   35.5900 N   0  0  0  0  0  0  0  0  0  0  0  0
   25.5000   26.4000   34.6900 C   0  0  0  0  0  0  0  0  0  0  0  0
   25.1700   25.5200   33.9100 O   0  0  0  0  0  0  0  0  0  0  0  0
   26.8400   27.0200   34.7400 C   0  0  0  0  0  0  0  0  0  0  0  0
   27.3800   27.2800   35.9400 N   0  0  0  0  0  0  0  0  0  0  0  0
   28.6200   27.7400   36.0300 N   0  0  0  0  0  0  0  0  0  0  0  0
   29.3800   28.0000   34.9600 C   0  0  0  0  0  0  0  0  0  0  0  0
   30.6700   28.5000   35.1300 C   0  0  0  0  0  0  0  0  0  0  0  0
   31.5400   28.6100   34.0300 C   0  0  0  0  0  0  0  0  0  0  0  0
   31.0900   28.2200   32.7700 C   0  0  0  0  0  0  0  0  0  0  0  0
   29.8000   27.7000   32.6000 C   0  0  0  0  0  0  0  0  0  0  0  0
   28.9600   27.5500   33.7100 C   0  0  0  0  0  0  0  0  0  0  0  0
   27.6600   27.0300   33.5900 C   0  0  0  0  0  0  0  0  0  0  0  0
   27.1600   26.7400   32.3400 N   0  0  0  0  0  0  0  0  0  0  0  0
   23.1781   26.5058   35.5777 C   0  0  0  0  0  0  0  0  0  0  0  0
   22.5747   26.2365   34.3881 N   0  0  0  0  0  0  0  0  0  0  0  0
   21.2572   25.9397   34.2893 C   0  0  0  0  0  0  0  0  0  0  0  0
   20.4534   25.9336   35.4297 C   0  0  0  0  0  0  0  0  0  0  0  0
   18.9740   25.6743   35.3180 C   0  0  0  0  0  0  0  0  0  0  0  0
   18.4635   25.0682   36.4936 O   0  0  0  0  0  0  0  0  0  0  0  0
   18.6407   25.8849   37.6448 C   0  0  0  0  0  0  0  0  0  0  0  0
   17.6627   27.0676   37.6656 C   0  0  0  0  0  0  0  0  0  0  0  0
   20.0699   26.3423   37.8199 C   0  0  0  0  0  0  0  0  0  0  0  0
   20.4110   26.8612   38.9165 O   0  0  0  0  0  0  0  0  0  0  0  0
   21.0133   26.2520   36.6756 C   0  0  0  0  0  0  0  0  0  0  0  0
   22.4150   26.4766   36.7729 C   0  0  0  0  0  0  0  0  0  0  0  0
   23.0940   26.6482   38.1127 C   0  0  0  0  0  0  0  0  0  0  0  0
   24.8655   27.6046   36.2832 H   0  0  0  0  0  0  0  0  0  0  0  0
   31.0179   28.7883   36.1144 H   0  0  0  0  0  0  0  0  0  0  0  0
   32.5424   28.9969   34.1597 H   0  0  0  0  0  0  0  0  0  0  0  0
   31.7487   28.3095   31.9157 H   0  0  0  0  0  0  0  0  0  0  0  0
   29.5077   27.3813   31.6086 H   0  0  0  0  0  0  0  0  0  0  0  0
   27.2453   27.4248   31.5561 H   0  0  0  0  0  0  0  0  0  0  0  0
   26.7446   25.8077   32.1268 H   0  0  0  0  0  0  0  0  0  0  0  0
   20.8330   25.7304   33.3157 H   0  0  0  0  0  0  0  0  0  0  0  0
   18.4361   26.6157   35.0782 H   0  0  0  0  0  0  0  0  0  0  0  0
   18.7870   24.9777   34.4731 H   0  0  0  0  0  0  0  0  0  0  0  0
   18.3952   25.2507   38.5240 H   0  0  0  0  0  0  0  0  0  0  0  0
   17.9644   27.8548   36.9434 H   0  0  0  0  0  0  0  0  0  0  0  0
   16.6392   26.7164   37.4158 H   0  0  0  0  0  0  0  0  0  0  0  0
   17.6395   27.5209   38.6797 H   0  0  0  0  0  0  0  0  0  0  0  0
   24.1758   26.4092   38.0668 H   0  0  0  0  0  0  0  0  0  0  0  0
   22.9661   27.6913   38.4699 H   0  0  0  0  0  0  0  0  0  0  0  0
   22.6760   25.9367   38.8543 H   0  0  0  0  0  0  0  0  0  0  0  0
  1  2  1  0
  2  3  2  0
  2  4  1  0
  4  5  2  0
  5  6  1  0
  6  7  2  0
  7  8  1  0
  8  9  2  0
  9 10  1  0
 10 11  2  0
 11 12  1  0
 12 13  2  0
 13 14  1  0
  1 15  1  0
 15 16  2  0
 16 17  1  0
 17 18  2  0
 18 19  1  0
 19 20  1  0
 20 21  1  0
 21 22  1  0
 21 23  1  0
 23 24  2  0
 23 25  1  0
 25 26  2  0
 26 27  1  0
 13  4  1  0
 26 15  1  0
 12  7  1  0
 25 18  1  0
  1 28  1  0
  8 29  1  0
  9 30  1  0
 10 31  1  0
 11 32  1  0
 14 33  1  0
 14 34  1  0
 17 35  1  0
 19 36  1  0
 19 37  1  0
 21 38  1  0
 22 39  1  0
 22 40  1  0
 22 41  1  0
 27 42  1  0
 27 43  1  0
 27 44  1  0
M  END
$$$$
confid_5
     RDKit          3D

 44 47  0  0  0  0  0  0  0  0999 V2000
   24.5700   26.8800   35.5900 N   0  0  0  0  0  0  0  0  0  0  0  0
   25.5000   26.4000   34.6900 C   0  0  0  0  0  0  0  0  0  0  0  0
   25.1700   25.5200   33.9100 O   0  0  0  0  0  0  0  0  0  0  0  0
   26.8400   27.0200   34.7400 C   0  0  0  0  0  0  0  0  0  0  0  0
   27.3800   27.2800   35.9400 N   0  0  0  0  0  0  0  0  0  0  0  0
   28.6200   27.7400   36.0300 N   0  0  0  0  0  0  0  0  0  0  0  0
   29.3800   28.0000   34.9600 C   0  0  0  0  0  0  0  0  0  0  0  0
   30.6700   28.5000   35.1300 C   0  0  0  0  0  0  0  0  0  0  0  0
   31.5400   28.6100   34.0300 C   0  0  0  0  0  0  0  0  0  0  0  0
   31.0900   28.2200   32.7700 C   0  0  0  0  0  0  0  0  0  0  0  0
   29.8000   27.7000   32.6000 C   0  0  0  0  0  0  0  0  0  0  0  0
   28.9600   27.5500   33.7100 C   0  0  0  0  0  0  0  0  0  0  0  0
   27.6600   27.0300   33.5900 C   0  0  0  0  0  0  0  0  0  0  0  0
   27.1600   26.7400   32.3400 N   0  0  0  0  0  0  0  0  0  0  0  0
   23.3361   26.2006   35.8937 C   0  0  0  0  0  0  0  0  0  0  0  0
   23.3017   24.8418   35.8430 N   0  0  0  0  0  0  0  0  0  0  0  0
   22.2032   24.1271   36.1822 C   0  0  0  0  0  0  0  0  0  0  0  0
   21.0637   24.7757   36.6603 C   0  0  0  0  0  0  0  0  0  0  0  0
   19.8308   23.9733   37.0031 C   0  0  0  0  0  0  0  0  0  0  0  0
   19.0234   24.6057   37.9827 O   0  0  0  0  0  0  0  0  0  0  0  0
   18.6308   25.9176   37.6029 C   0  0  0  0  0  0  0  0  0  0  0  0
   17.6342   25.9231   36.4357 C   0  0  0  0  0  0  0  0  0  0  0  0
   19.8223   26.7917   37.3155 C   0  0  0  0  0  0  0  0  0  0  0  0
   19.7623   28.0173   37.6020 O   0  0  0  0  0  0  0  0  0  0  0  0
   21.0447   26.1784   36.7363 C   0  0  0  0  0  0  0  0  0  0  0  0
   22.1789   26.9168   36.2935 C   0  0  0  0  0  0  0  0  0  0  0  0
   22.1517   28.4262   36.2062 C   0  0  0  0  0  0  0  0  0  0  0  0
   24.7905   27.7551   36.1178 H   0  0  0  0  0  0  0  0  0  0  0  0
   31.0178   28.7888   36.1143 H   0  0  0  0  0  0  0  0  0  0  0  0
   32.5416   28.9991   34.1593 H   0  0  0  0  0  0  0  0  0  0  0  0
   31.7454   28.3188   31.9142 H   0  0  0  0  0  0  0  0  0  0  0  0
   29.5013   27.4243   31.5992 H   0  0  0  0  0  0  0  0  0  0  0  0
   26.1711   26.9656   32.0920 H   0  0  0  0  0  0  0  0  0  0  0  0
   27.7096   26.1832   31.6493 H   0  0  0  0  0  0  0  0  0  0  0  0
   22.2278   23.0482   36.0988 H   0  0  0  0  0  0  0  0  0  0  0  0
   19.2473   23.7579   36.0831 H   0  0  0  0  0  0  0  0  0  0  0  0
   20.1421   22.9893   37.4138 H   0  0  0  0  0  0  0  0  0  0  0  0
   18.1000   26.3531   38.4775 H   0  0  0  0  0  0  0  0  0  0  0  0
   16.8291   25.1814   36.6225 H   0  0  0  0  0  0  0  0  0  0  0  0
   17.1714   26.9287   36.3416 H   0  0  0  0  0  0  0  0  0  0  0  0
   18.1352   25.6842   35.4739 H   0  0  0  0  0  0  0  0  0  0  0  0
   22.9225   28.8227   35.5154 H   0  0  0  0  0  0  0  0  0  0  0  0
   21.1875   28.7716   35.7800 H   0  0  0  0  0  0  0  0  0  0  0  0
   22.3053   28.8659   37.2137 H   0  0  0  0  0  0  0  0  0  0  0  0
  1  2  1  0
  2  3  2  0
  2  4  1  0
  4  5  2  0
  5  6  1  0
  6  7  2  0
  7  8  1  0
  8  9  2  0
  9 10  1  0
 10 11  2  0
 11 12  1  0
 12 13  2  0
 13 14  1  0
  1 15  1  0
 15 16  2  0
 16 17  1  0
 17 18  2  0
 18 19  1  0
 19 20  1  0
 20 21  1  0
 21 22  1  0
 21 23  1  0
 23 24  2  0
 23 25  1  0
 25 26  2  0
 26 27  1  0
 13  4  1  0
 26 15  1  0
 12  7  1  0
 25 18  1  0
  1 28  1  0
  8 29  1  0
  9 30  1  0
 10 31  1  0
 11 32  1  0
 14 33  1  0
 14 34  1  0
 17 35  1  0
 19 36  1  0
 19 37  1  0
 21 38  1  0
 22 39  1  0
 22 40  1  0
 22 41  1  0
 27 42  1  0
 27 43  1  0
 27 44  1  0
M  END
$$$$
confid_6
     RDKit          3D

 44 47  0  0  0  0  0  0  0  0999 V2000
   24.5700   26.8800   35.5900 N   0  0  0  0  0  0  0  0  0  0  0  0
   25.5000   26.4000   34.6900 C   0  0  0  0  0  0  0  0  0  0  0  0
   25.1700   25.5200   33.9100 O   0  0  0  0  0  0  0  0  0  0  0  0
   26.8400   27.0200   34.7400 C   0  0  0  0  0  0  0  0  0  0  0  0
   27.3800   27.2800   35.9400 N   0  0  0  0  0  0  0  0  0  0  0  0
   28.6200   27.7400   36.0300 N   0  0  0  0  0  0  0  0  0  0  0  0
   29.3800   28.0000   34.9600 C   0  0  0  0  0  0  0  0  0  0  0  0
   30.6700   28.5000   35.1300 C   0  0  0  0  0  0  0  0  0  0  0  0
   31.5400   28.6100   34.0300 C   0  0  0  0  0  0  0  0  0  0  0  0
   31.0900   28.2200   32.7700 C   0  0  0  0  0  0  0  0  0  0  0  0
   29.8000   27.7000   32.6000 C   0  0  0  0  0  0  0  0  0  0  0  0
   28.9600   27.5500   33.7100 C   0  0  0  0  0  0  0  0  0  0  0  0
   27.6600   27.0300   33.5900 C   0  0  0  0  0  0  0  0  0  0  0  0
   27.1600   26.7400   32.3400 N   0  0  0  0  0  0  0  0  0  0  0  0
   23.1792   26.5037   35.5765 C   0  0  0  0  0  0  0  0  0  0  0  0
   22.5712   26.2670   34.3827 N   0  0  0  0  0  0  0  0  0  0  0  0
   21.2522   25.9815   34.2796 C   0  0  0  0  0  0  0  0  0  0  0  0
   20.4462   25.9743   35.4180 C   0  0  0  0  0  0  0  0  0  0  0  0
   18.9786   25.6381   35.3073 C   0  0  0  0  0  0  0  0  0  0  0  0
   18.2272   26.2917   36.3131 O   0  0  0  0  0  0  0  0  0  0  0  0
   18.6358   25.8542   37.5977 C   0  0  0  0  0  0  0  0  0  0  0  0
   17.7076   26.4862   38.6371 C   0  0  0  0  0  0  0  0  0  0  0  0
   20.0836   26.2284   37.8394 C   0  0  0  0  0  0  0  0  0  0  0  0
   20.4708   26.5275   39.0013 O   0  0  0  0  0  0  0  0  0  0  0  0
   21.0202   26.2101   36.6807 C   0  0  0  0  0  0  0  0  0  0  0  0
   22.4240   26.4329   36.7757 C   0  0  0  0  0  0  0  0  0  0  0  0
   23.1138   26.5526   38.1163 C   0  0  0  0  0  0  0  0  0  0  0  0
   24.8619   27.6108   36.2782 H   0  0  0  0  0  0  0  0  0  0  0  0
   31.0179   28.7883   36.1144 H   0  0  0  0  0  0  0  0  0  0  0  0
   32.5424   28.9969   34.1597 H   0  0  0  0  0  0  0  0  0  0  0  0
   31.7487   28.3095   31.9157 H   0  0  0  0  0  0  0  0  0  0  0  0
   29.5077   27.3813   31.6086 H   0  0  0  0  0  0  0  0  0  0  0  0
   26.7446   25.8077   32.1268 H   0  0  0  0  0  0  0  0  0  0  0  0
   27.2453   27.4248   31.5561 H   0  0  0  0  0  0  0  0  0  0  0  0
   20.8281   25.7832   33.3037 H   0  0  0  0  0  0  0  0  0  0  0  0
   18.5927   25.9747   34.3215 H   0  0  0  0  0  0  0  0  0  0  0  0
   18.8368   24.5351   35.3562 H   0  0  0  0  0  0  0  0  0  0  0  0
   18.5298   24.7483   37.6849 H   0  0  0  0  0  0  0  0  0  0  0  0
   17.8060   27.5930   38.6228 H   0  0  0  0  0  0  0  0  0  0  0  0
   16.6536   26.2197   38.4095 H   0  0  0  0  0  0  0  0  0  0  0  0
   17.9484   26.1093   39.6542 H   0  0  0  0  0  0  0  0  0  0  0  0
   24.2105   26.4101   38.0471 H   0  0  0  0  0  0  0  0  0  0  0  0
   22.7668   25.7500   38.7990 H   0  0  0  0  0  0  0  0  0  0  0  0
   22.9079   27.5494   38.5594 H   0  0  0  0  0  0  0  0  0  0  0  0
  1  2  1  0
  2  3  2  0
  2  4  1  0
  4  5  2  0
  5  6  1  0
  6  7  2  0
  7  8  1  0
  8  9  2  0
  9 10  1  0
 10 11  2  0
 11 12  1  0
 12 13  2  0
 13 14  1  0
  1 15  1  0
 15 16  2  0
 16 17  1  0
 17 18  2  0
 18 19  1  0
 19 20  1  0
 20 21  1  0
 21 22  1  0
 21 23  1  0
 23 24  2  0
 23 25  1  0
 25 26  2  0
 26 27  1  0
 13  4  1  0
 26 15  1  0
 12  7  1  0
 25 18  1  0
  1 28  1  0
  8 29  1  0
  9 30  1  0
 10 31  1  0
 11 32  1  0
 14 33  1  0
 14 34  1  0
 17 35  1  0
 19 36  1  0
 19 37  1  0
 21 38  1  0
 22 39  1  0
 22 40  1  0
 22 41  1  0
 27 42  1  0
 27 43  1  0
 27 44  1  0
M  END
$$$$
confid_7
     RDKit          3D

 44 47  0  0  0  0  0  0  0  0999 V2000
   24.5700   26.8800   35.5900 N   0  0  0  0  0  0  0  0  0  0  0  0
   25.5000   26.4000   34.6900 C   0  0  0  0  0  0  0  0  0  0  0  0
   25.1700   25.5200   33.9100 O   0  0  0  0  0  0  0  0  0  0  0  0
   26.8400   27.0200   34.7400 C   0  0  0  0  0  0  0  0  0  0  0  0
   27.3800   27.2800   35.9400 N   0  0  0  0  0  0  0  0  0  0  0  0
   28.6200   27.7400   36.0300 N   0  0  0  0  0  0  0  0  0  0  0  0
   29.3800   28.0000   34.9600 C   0  0  0  0  0  0  0  0  0  0  0  0
   30.6700   28.5000   35.1300 C   0  0  0  0  0  0  0  0  0  0  0  0
   31.5400   28.6100   34.0300 C   0  0  0  0  0  0  0  0  0  0  0  0
   31.0900   28.2200   32.7700 C   0  0  0  0  0  0  0  0  0  0  0  0
   29.8000   27.7000   32.6000 C   0  0  0  0  0  0  0  0  0  0  0  0
   28.9600   27.5500   33.7100 C   0  0  0  0  0  0  0  0  0  0  0  0
   27.6600   27.0300   33.5900 C   0  0  0  0  0  0  0  0  0  0  0  0
   27.1600   26.7400   32.3400 N   0  0  0  0  0  0  0  0  0  0  0  0
   23.3360   26.2005   35.8921 C   0  0  0  0  0  0  0  0  0  0  0  0
   23.3076   24.8408   35.8564 N   0  0  0  0  0  0  0  0  0  0  0  0
   22.2109   24.1247   36.1981 C   0  0  0  0  0  0  0  0  0  0  0  0
   21.0669   24.7744   36.6615 C   0  0  0  0  0  0  0  0  0  0  0  0
   19.8366   23.9784   37.0260 C   0  0  0  0  0  0  0  0  0  0  0  0
   19.0862   24.6285   38.0349 O   0  0  0  0  0  0  0  0  0  0  0  0
   18.6232   25.8858   37.5735 C   0  0  0  0  0  0  0  0  0  0  0  0
   17.7077   26.4825   38.6446 C   0  0  0  0  0  0  0  0  0  0  0  0
   19.7978   26.7931   37.2713 C   0  0  0  0  0  0  0  0  0  0  0  0
   19.7058   28.0334   37.4779 O   0  0  0  0  0  0  0  0  0  0  0  0
   21.0377   26.1798   36.7183 C   0  0  0  0  0  0  0  0  0  0  0  0
   22.1733   26.9175   36.2765 C   0  0  0  0  0  0  0  0  0  0  0  0
   22.1419   28.4260   36.1747 C   0  0  0  0  0  0  0  0  0  0  0  0
   24.7919   27.7525   36.1216 H   0  0  0  0  0  0  0  0  0  0  0  0
   31.0179   28.7883   36.1144 H   0  0  0  0  0  0  0  0  0  0  0  0
   32.5424   28.9969   34.1597 H   0  0  0  0  0  0  0  0  0  0  0  0
   31.7487   28.3095   31.9157 H   0  0  0  0  0  0  0  0  0  0  0  0
   29.5077   27.3814   31.6085 H   0  0  0  0  0  0  0  0  0  0  0  0
   26.7451   25.8075   32.1268 H   0  0  0  0  0  0  0  0  0  0  0  0
   27.2453   27.4248   31.5562 H   0  0  0  0  0  0  0  0  0  0  0  0
   22.2416   23.0448   36.1308 H   0  0  0  0  0  0  0  0  0  0  0  0
   20.1392   22.9829   37.4152 H   0  0  0  0  0  0  0  0  0  0  0  0
   19.2162   23.8014   36.1189 H   0  0  0  0  0  0  0  0  0  0  0  0
   18.0156   25.7620   36.6474 H   0  0  0  0  0  0  0  0  0  0  0  0
   16.8777   25.7775   38.8633 H   0  0  0  0  0  0  0  0  0  0  0  0
   18.2758   26.6654   39.5822 H   0  0  0  0  0  0  0  0  0  0  0  0
   17.2660   27.4385   38.2905 H   0  0  0  0  0  0  0  0  0  0  0  0
   21.1948   28.7603   35.7037 H   0  0  0  0  0  0  0  0  0  0  0  0
   22.2486   28.8754   37.1841 H   0  0  0  0  0  0  0  0  0  0  0  0
   22.9384   28.8247   35.5155 H   0  0  0  0  0  0  0  0  0  0  0  0
  1  2  1  0
  2  3  2  0
  2  4  1  0
  4  5  2  0
  5  6  1  0
  6  7  2  0
  7  8  1  0
  8  9  2  0
  9 10  1  0
 10 11  2  0
 11 12  1  0
 12 13  2  0
 13 14  1  0
  1 15  1  0
 15 16  2  0
 16 17  1  0
 17 18  2  0
 18 19  1  0
 19 20  1  0
 20 21  1  0
 21 22  1  0
 21 23  1  0
 23 24  2  0
 23 25  1  0
 25 26  2  0
 26 27  1  0
 13  4  1  0
 26 15  1  0
 12  7  1  0
 25 18  1  0
  1 28  1  0
  8 29  1  0
  9 30  1  0
 10 31  1  0
 11 32  1  0
 14 33  1  0
 14 34  1  0
 17 35  1  0
 19 36  1  0
 19 37  1  0
 21 38  1  0
 22 39  1  0
 22 40  1  0
 22 41  1  0
 27 42  1  0
 27 43  1  0
 27 44  1  0
M  END
$$$$
