confid_0
     RDKit          3D

 45 48  0  0  0  0  0  0  0  0999 V2000
   25.3300   26.2600   34.7600 N   0  0  0  0  0  0  0  0  0  0  0  0
   26.1200   25.9200   33.6900 C   0  0  0  0  0  0  0  0  0  0  0  0
   25.6300   25.1100   32.9400 O   0  0  0  0  0  0  0  0  0  0  0  0
   27.5200   26.3800   33.4600 C   0  0  0  0  0  0  0  0  0  0  0  0
   28.1600   26.6300   34.6100 N   0  0  0  0  0  0  0  0  0  0  0  0
   29.4800   26.8500   34.5700 N   0  0  0  0  0  0  0  0  0  0  0  0
   30.1900   26.7800   33.4400 C   0  0  0  0  0  0  0  0  0  0  0  0
   31.5600   27.0500   33.5000 C   0  0  0  0  0  0  0  0  0  0  0  0
   32.2700   27.2400   32.3100 C   0  0  0  0  0  0  0  0  0  0  0  0
   31.6100   27.2500   31.0800 C   0  0  0  0  0  0  0  0  0  0  0  0
   30.2700   26.8700   31.0600 C   0  0  0  0  0  0  0  0  0  0  0  0
   29.5100   26.6900   32.2300 C   0  0  0  0  0  0  0  0  0  0  0  0
   28.1400   26.4100   32.2000 C   0  0  0  0  0  0  0  0  0  0  0  0
   27.4300   26.1300   31.0500 N   0  0  0  0  0  0  0  0  0  0  0  0
   24.1866   25.5096   35.2222 C   0  0  0  0  0  0  0  0  0  0  0  0
   24.1049   24.1690   34.9559 N   0  0  0  0  0  0  0  0  0  0  0  0
   23.0689   23.4000   35.3855 C   0  0  0  0  0  0  0  0  0  0  0  0
   22.0792   23.9865   36.1627 C   0  0  0  0  0  0  0  0  0  0  0  0
   20.8465   23.3524   36.6947 C   0  0  0  0  0  0  0  0  0  0  0  0
   20.1270   24.5228   37.3984 C   0  0  0  0  0  0  0  0  0  0  0  0
   21.0336   25.6731   37.3201 N   0  0  0  0  0  0  0  0  0  0  0  0
   21.0387   26.6859   38.3394 C   0  0  0  0  0  0  0  0  0  0  0  0
   22.1237   27.0536   38.8643 O   0  0  0  0  0  0  0  0  0  0  0  0
   19.7511   27.2386   38.8598 C   0  0  0  0  0  0  0  0  0  0  0  0
   22.1470   25.3075   36.5064 C   0  0  0  0  0  0  0  0  0  0  0  0
   23.1613   26.1383   35.9807 C   0  0  0  0  0  0  0  0  0  0  0  0
   23.1288   27.6363   36.1395 C   0  0  0  0  0  0  0  0  0  0  0  0
   25.6167   27.1036   35.3052 H   0  0  0  0  0  0  0  0  0  0  0  0
   32.0667   27.1429   34.4530 H   0  0  0  0  0  0  0  0  0  0  0  0
   33.3284   27.4627   32.3495 H   0  0  0  0  0  0  0  0  0  0  0  0
   32.1496   27.4414   30.1613 H   0  0  0  0  0  0  0  0  0  0  0  0
   29.7983   26.8254   30.0886 H   0  0  0  0  0  0  0  0  0  0  0  0
   27.8914   25.7239   30.2072 H   0  0  0  0  0  0  0  0  0  0  0  0
   26.4124   26.3494   30.9737 H   0  0  0  0  0  0  0  0  0  0  0  0
   23.0247   22.3501   35.1282 H   0  0  0  0  0  0  0  0  0  0  0  0
   20.2294   22.9430   35.8663 H   0  0  0  0  0  0  0  0  0  0  0  0
   21.1105   22.5517   37.4187 H   0  0  0  0  0  0  0  0  0  0  0  0
   19.9199   24.2583   38.4588 H   0  0  0  0  0  0  0  0  0  0  0  0
   19.1731   24.7645   36.8821 H   0  0  0  0  0  0  0  0  0  0  0  0
   18.9942   27.2657   38.0482 H   0  0  0  0  0  0  0  0  0  0  0  0
   19.9030   28.2715   39.2383 H   0  0  0  0  0  0  0  0  0  0  0  0
   19.3795   26.5980   39.6863 H   0  0  0  0  0  0  0  0  0  0  0  0
   22.0940   28.0038   36.2929 H   0  0  0  0  0  0  0  0  0  0  0  0
   23.4946   28.1337   35.2168 H   0  0  0  0  0  0  0  0  0  0  0  0
   23.7703   27.9400   36.9925 H   0  0  0  0  0  0  0  0  0  0  0  0
  1  2  1  0
  2  3  2  0
  2  4  1  0
  4  5  2  0
  5  6  1  0
  6  7  2  0
  7  8  1  0
  8  9  2  0
  9 10  1  0
 10 11  2  0
 11 12  1  0
 12 13  2  0
 13 14  1  0
  1 15  1  0
 15 16  2  0
 16 17  1  0
 17 18  2  0
 18 19  1  0
 19 20  1  0
 20 21  1  0
 21 22  1  0
 22 23  2  0
 22 24  1  0
 21 25  1  0
 25 26  2  0
 26 27  1  0
 13  4  1  0
 26 15  1  0
 12  7  1  0
 25 18  1  0
  1 28  1  0
  8 29  1  0
  9 30  1  0
 10 31  1  0
 11 32  1  0
 14 33  1  0
 14 34  1  0
 17 35  1  0
 19 36  1  0
 19 37  1  0
 20 38  1  0
 20 39  1  0
 24 40  1  0
 24 41  1  0
 24 42  1  0
 27 43  1  0
 27 44  1  0
 27 45  1  0
M  END
$$$$
confid_1
     RDKit          3D

 45 48  0  0  0  0  0  0  0  0999 V2000
   25.3300   26.2600   34.7600 N   0  0  0  0  0  0  0  0  0  0  0  0
   26.1200   25.9200   33.6900 C   0  0  0  0  0  0  0  0  0  0  0  0
   25.6300   25.1100   32.9400 O   0  0  0  0  0  0  0  0  0  0  0  0
   27.5200   26.3800   33.4600 C   0  0  0  0  0  0  0  0  0  0  0  0
   28.1600   26.6300   34.6100 N   0  0  0  0  0  0  0  0  0  0  0  0
   29.4800   26.8500   34.5700 N   0  0  0  0  0  0  0  0  0  0  0  0
   30.1900   26.7800   33.4400 C   0  0  0  0  0  0  0  0  0  0  0  0
   31.5600   27.0500   33.5000 C   0  0  0  0  0  0  0  0  0  0  0  0
   32.2700   27.2400   32.3100 C   0  0  0  0  0  0  0  0  0  0  0  0
   31.6100   27.2500   31.0800 C   0  0  0  0  0  0  0  0  0  0  0  0
   30.2700   26.8700   31.0600 C   0  0  0  0  0  0  0  0  0  0  0  0
   29.5100   26.6900   32.2300 C   0  0  0  0  0  0  0  0  0  0  0  0
   28.1400   26.4100   32.2000 C   0  0  0  0  0  0  0  0  0  0  0  0
   27.4300   26.1300   31.0500 N   0  0  0  0  0  0  0  0  0  0  0  0
   23.8996   26.0757   34.8203 C   0  0  0  0  0  0  0  0  0  0  0  0
   23.1779   25.9992   33.6592 N   0  0  0  0  0  0  0  0  0  0  0  0
   21.8262   25.8515   33.6468 C   0  0  0  0  0  0  0  0  0  0  0  0
   21.1464   25.8225   34.8571 C   0  0  0  0  0  0  0  0  0  0  0  0
   19.6915   25.6241   35.0777 C   0  0  0  0  0  0  0  0  0  0  0  0
   19.5697   25.6110   36.6164 C   0  0  0  0  0  0  0  0  0  0  0  0
   20.9060   25.9136   37.1400 N   0  0  0  0  0  0  0  0  0  0  0  0
   21.0761   26.5944   38.3939 C   0  0  0  0  0  0  0  0  0  0  0  0
   21.8393   27.5938   38.4758 O   0  0  0  0  0  0  0  0  0  0  0  0
   20.2722   26.1893   39.5871 C   0  0  0  0  0  0  0  0  0  0  0  0
   21.8153   25.9552   36.0415 C   0  0  0  0  0  0  0  0  0  0  0  0
   23.2268   26.0049   36.0710 C   0  0  0  0  0  0  0  0  0  0  0  0
   24.0028   25.9070   37.3588 C   0  0  0  0  0  0  0  0  0  0  0  0
   25.7865   26.7632   35.5530 H   0  0  0  0  0  0  0  0  0  0  0  0
   32.0667   27.1429   34.4530 H   0  0  0  0  0  0  0  0  0  0  0  0
   33.3284   27.4627   32.3495 H   0  0  0  0  0  0  0  0  0  0  0  0
   32.1496   27.4414   30.1613 H   0  0  0  0  0  0  0  0  0  0  0  0
   29.7983   26.8254   30.0886 H   0  0  0  0  0  0  0  0  0  0  0  0
   26.4123   26.3491   30.9739 H   0  0  0  0  0  0  0  0  0  0  0  0
   27.8914   25.7241   30.2071 H   0  0  0  0  0  0  0  0  0  0  0  0
   21.2949   25.7641   32.7085 H   0  0  0  0  0  0  0  0  0  0  0  0
   19.1196   26.4694   34.6381 H   0  0  0  0  0  0  0  0  0  0  0  0
   19.3589   24.6577   34.6414 H   0  0  0  0  0  0  0  0  0  0  0  0
   19.2464   24.6105   36.9760 H   0  0  0  0  0  0  0  0  0  0  0  0
   18.8363   26.3799   36.9455 H   0  0  0  0  0  0  0  0  0  0  0  0
   20.8202   26.4380   40.5204 H   0  0  0  0  0  0  0  0  0  0  0  0
   19.3011   26.7263   39.5800 H   0  0  0  0  0  0  0  0  0  0  0  0
   20.0863   25.0951   39.5657 H   0  0  0  0  0  0  0  0  0  0  0  0
   24.9281   25.3113   37.2116 H   0  0  0  0  0  0  0  0  0  0  0  0
   24.2792   26.9221   37.7116 H   0  0  0  0  0  0  0  0  0  0  0  0
   23.4217   25.3782   38.1411 H   0  0  0  0  0  0  0  0  0  0  0  0
  1  2  1  0
  2  3  2  0
  2  4  1  0
  4  5  2  0
  5  6  1  0
  6  7  2  0
  7  8  1  0
  8  9  2  0
  9 10  1  0
 10 11  2  0
 11 12  1  0
 12 13  2  0
 13 14  1  0
  1 15  1  0
 15 16  2  0
 16 17  1  0
 17 18  2  0
 18 19  1  0
 19 20  1  0
 20 21  1  0
 21 22  1  0
 22 23  2  0
 22 24  1  0
 21 25  1  0
 25 26  2  0
 26 27  1  0
 13  4  1  0
 26 15  1  0
 12  7  1  0
 25 18  1  0
  1 28  1  0
  8 29  1  0
  9 30  1  0
 10 31  1  0
 11 32  1  0
 14 33  1  0
 14 34  1  0
 17 35  1  0
 19 36  1  0
 19 37  1  0
 20 38  1  0
 20 39  1  0
 24 40  1  0
 24 41  1  0
 24 42  1  0
 27 43  1  0
 27 44  1  0
 27 45  1  0
M  END
$$$$
confid_2
     RDKit          3D

 45 48  0  0  0  0  0  0  0  0999 V2000
   25.3300   26.2600   34.7600 N   0  0  0  0  0  0  0  0  0  0  0  0
   26.1200   25.9200   33.6900 C   0  0  0  0  0  0  0  0  0  0  0  0
   25.6300   25.1100   32.9400 O   0  0  0  0  0  0  0  0  0  0  0  0
   27.5200   26.3800   33.4600 C   0  0  0  0  0  0  0  0  0  0  0  0
   28.1600   26.6300   34.6100 N   0  0  0  0  0  0  0  0  0  0  0  0
   29.4800   26.8500   34.5700 N   0  0  0  0  0  0  0  0  0  0  0  0
   30.1900   26.7800   33.4400 C   0  0  0  0  0  0  0  0  0  0  0  0
   31.5600   27.0500   33.5000 C   0  0  0  0  0  0  0  0  0  0  0  0
   32.2700   27.2400   32.3100 C   0  0  0  0  0  0  0  0  0  0  0  0
   31.6100   27.2500   31.0800 C   0  0  0  0  0  0  0  0  0  0  0  0
   30.2700   26.8700   31.0600 C   0  0  0  0  0  0  0  0  0  0  0  0
   29.5100   26.6900   32.2300 C   0  0  0  0  0  0  0  0  0  0  0  0
   28.1400   26.4100   32.2000 C   0  0  0  0  0  0  0  0  0  0  0  0
   27.4300   26.1300   31.0500 N   0  0  0  0  0  0  0  0  0  0  0  0
   23.8998   26.0735   34.8221 C   0  0  0  0  0  0  0  0  0  0  0  0
   23.1774   25.9876   33.6620 N   0  0  0  0  0  0  0  0  0  0  0  0
   21.8260   25.8361   33.6515 C   0  0  0  0  0  0  0  0  0  0  0  0
   21.1474   25.8111   34.8625 C   0  0  0  0  0  0  0  0  0  0  0  0
   19.6934   25.6083   35.0867 C   0  0  0  0  0  0  0  0  0  0  0  0
   19.5751   25.5979   36.6261 C   0  0  0  0  0  0  0  0  0  0  0  0
   20.9100   25.9086   37.1448 N   0  0  0  0  0  0  0  0  0  0  0  0
   21.0626   26.5935   38.3975 C   0  0  0  0  0  0  0  0  0  0  0  0
   20.5868   26.0791   39.4442 O   0  0  0  0  0  0  0  0  0  0  0  0
   21.6863   27.9525   38.4755 C   0  0  0  0  0  0  0  0  0  0  0  0
   21.8172   25.9522   36.0451 C   0  0  0  0  0  0  0  0  0  0  0  0
   23.2279   26.0095   36.0735 C   0  0  0  0  0  0  0  0  0  0  0  0
   24.0048   25.9341   37.3620 C   0  0  0  0  0  0  0  0  0  0  0  0
   25.7872   26.7628   35.5528 H   0  0  0  0  0  0  0  0  0  0  0  0
   32.0668   27.1425   34.4530 H   0  0  0  0  0  0  0  0  0  0  0  0
   33.3288   27.4608   32.3494 H   0  0  0  0  0  0  0  0  0  0  0  0
   32.1515   27.4335   30.1608 H   0  0  0  0  0  0  0  0  0  0  0  0
   29.8039   26.7906   30.0880 H   0  0  0  0  0  0  0  0  0  0  0  0
   26.8604   25.2629   30.9529 H   0  0  0  0  0  0  0  0  0  0  0  0
   27.5769   26.6941   30.1847 H   0  0  0  0  0  0  0  0  0  0  0  0
   21.2942   25.7416   32.7142 H   0  0  0  0  0  0  0  0  0  0  0  0
   19.3628   24.6402   34.6530 H   0  0  0  0  0  0  0  0  0  0  0  0
   19.1180   26.4512   34.6471 H   0  0  0  0  0  0  0  0  0  0  0  0
   18.8382   26.3629   36.9569 H   0  0  0  0  0  0  0  0  0  0  0  0
   19.2589   24.5962   36.9888 H   0  0  0  0  0  0  0  0  0  0  0  0
   22.5429   27.9316   39.1807 H   0  0  0  0  0  0  0  0  0  0  0  0
   20.9346   28.6804   38.8454 H   0  0  0  0  0  0  0  0  0  0  0  0
   22.0386   28.2914   37.4796 H   0  0  0  0  0  0  0  0  0  0  0  0
   24.3069   26.9527   37.6808 H   0  0  0  0  0  0  0  0  0  0  0  0
   24.9158   25.3137   37.2278 H   0  0  0  0  0  0  0  0  0  0  0  0
   23.4172   25.4451   38.1642 H   0  0  0  0  0  0  0  0  0  0  0  0
  1  2  1  0
  2  3  2  0
  2  4  1  0
  4  5  2  0
  5  6  1  0
  6  7  2  0
  7  8  1  0
  8  9  2  0
  9 10  1  0
 10 11  2  0
 11 12  1  0
 12 13  2  0
 13 14  1  0
  1 15  1  0
 15 16  2  0
 16 17  1  0
 17 18  2  0
 18 19  1  0
 19 20  1  0
 20 21  1  0
 21 22  1  0
 22 23  2  0
 22 24  1  0
 21 25  1  0
 25 26  2  0
 26 27  1  0
 13  4  1  0
 26 15  1  0
 12  7  1  0
 25 18  1  0
  1 28  1  0
  8 29  1  0
  9 30  1  0
 10 31  1  0
 11 32  1  0
 14 33  1  0
 14 34  1  0
 17 35  1  0
 19 36  1  0
 19 37  1  0
 20 38  1  0
 20 39  1  0
 24 40  1  0
 24 41  1  0
 24 42  1  0
 27 43  1  0
 27 44  1  0
 27 45  1  0
M  END
$$$$
confid_3
     RDKit          3D

 45 48  0  0  0  0  0  0  0  0999 V2000
   25.3300   26.2600   34.7600 N   0  0  0  0  0  0  0  0  0  0  0  0
   26.1200   25.9200   33.6900 C   0  0  0  0  0  0  0  0  0  0  0  0
   25.6300   25.1100   32.9400 O   0  0  0  0  0  0  0  0  0  0  0  0
   27.5200   26.3800   33.4600 C   0  0  0  0  0  0  0  0  0  0  0  0
   28.1600   26.6300   34.6100 N   0  0  0  0  0  0  0  0  0  0  0  0
   29.4800   26.8500   34.5700 N   0  0  0  0  0  0  0  0  0  0  0  0
   30.1900   26.7800   33.4400 C   0  0  0  0  0  0  0  0  0  0  0  0
   31.5600   27.0500   33.5000 C   0  0  0  0  0  0  0  0  0  0  0  0
   32.2700   27.2400   32.3100 C   0  0  0  0  0  0  0  0  0  0  0  0
   31.6100   27.2500   31.0800 C   0  0  0  0  0  0  0  0  0  0  0  0
   30.2700   26.8700   31.0600 C   0  0  0  0  0  0  0  0  0  0  0  0
   29.5100   26.6900   32.2300 C   0  0  0  0  0  0  0  0  0  0  0  0
   28.1400   26.4100   32.2000 C   0  0  0  0  0  0  0  0  0  0  0  0
   27.4300   26.1300   31.0500 N   0  0  0  0  0  0  0  0  0  0  0  0
   24.1878   25.5087   35.2239 C   0  0  0  0  0  0  0  0  0  0  0  0
   24.1024   24.1695   34.9514 N   0  0  0  0  0  0  0  0  0  0  0  0
   23.0666   23.4002   35.3809 C   0  0  0  0  0  0  0  0  0  0  0  0
   22.0799   23.9851   36.1631 C   0  0  0  0  0  0  0  0  0  0  0  0
   20.8465   23.3521   36.6956 C   0  0  0  0  0  0  0  0  0  0  0  0
   20.1292   24.5231   37.4012 C   0  0  0  0  0  0  0  0  0  0  0  0
   21.0386   25.6698   37.3260 N   0  0  0  0  0  0  0  0  0  0  0  0
   21.0337   26.6710   38.3552 C   0  0  0  0  0  0  0  0  0  0  0  0
   19.9726   27.3068   38.5927 O   0  0  0  0  0  0  0  0  0  0  0  0
   22.2318   26.9093   39.2210 C   0  0  0  0  0  0  0  0  0  0  0  0
   22.1513   25.3043   36.5119 C   0  0  0  0  0  0  0  0  0  0  0  0
   23.1668   26.1353   35.9898 C   0  0  0  0  0  0  0  0  0  0  0  0
   23.1442   27.6312   36.1661 C   0  0  0  0  0  0  0  0  0  0  0  0
   25.6157   27.1053   35.3030 H   0  0  0  0  0  0  0  0  0  0  0  0
   32.0667   27.1429   34.4530 H   0  0  0  0  0  0  0  0  0  0  0  0
   33.3284   27.4627   32.3495 H   0  0  0  0  0  0  0  0  0  0  0  0
   32.1496   27.4414   30.1613 H   0  0  0  0  0  0  0  0  0  0  0  0
   29.7983   26.8254   30.0886 H   0  0  0  0  0  0  0  0  0  0  0  0
   27.8914   25.7239   30.2072 H   0  0  0  0  0  0  0  0  0  0  0  0
   26.4124   26.3494   30.9737 H   0  0  0  0  0  0  0  0  0  0  0  0
   23.0197   22.3516   35.1190 H   0  0  0  0  0  0  0  0  0  0  0  0
   21.1102   22.5506   37.4187 H   0  0  0  0  0  0  0  0  0  0  0  0
   20.2282   22.9442   35.8674 H   0  0  0  0  0  0  0  0  0  0  0  0
   19.9191   24.2583   38.4611 H   0  0  0  0  0  0  0  0  0  0  0  0
   19.1769   24.7690   36.8839 H   0  0  0  0  0  0  0  0  0  0  0  0
   23.0825   26.2653   38.9172 H   0  0  0  0  0  0  0  0  0  0  0  0
   21.9755   26.6738   40.2749 H   0  0  0  0  0  0  0  0  0  0  0  0
   22.5356   27.9747   39.1551 H   0  0  0  0  0  0  0  0  0  0  0  0
   23.4764   28.1347   35.2341 H   0  0  0  0  0  0  0  0  0  0  0  0
   22.1195   28.0029   36.3657 H   0  0  0  0  0  0  0  0  0  0  0  0
   23.8213   27.9238   36.9947 H   0  0  0  0  0  0  0  0  0  0  0  0
  1  2  1  0
  2  3  2  0
  2  4  1  0
  4  5  2  0
  5  6  1  0
  6  7  2  0
  7  8  1  0
  8  9  2  0
  9 10  1  0
 10 11  2  0
 11 12  1  0
 12 13  2  0
 13 14  1  0
  1 15  1  0
 15 16  2  0
 16 17  1  0
 17 18  2  0
 18 19  1  0
 19 20  1  0
 20 21  1  0
 21 22  1  0
 22 23  2  0
 22 24  1  0
 21 25  1  0
 25 26  2  0
 26 27  1  0
 13  4  1  0
 26 15  1  0
 12  7  1  0
 25 18  1  0
  1 28  1  0
  8 29  1  0
  9 30  1  0
 10 31  1  0
 11 32  1  0
 14 33  1  0
 14 34  1  0
 17 35  1  0
 19 36  1  0
 19 37  1  0
 20 38  1  0
 20 39  1  0
 24 40  1  0
 24 41  1  0
 24 42  1  0
 27 43  1  0
 27 44  1  0
 27 45  1  0
M  END
$$$$
