confid_0
     RDKit          3D

 41 44  0  0  0  0  0  0  0  0999 V2000
   24.2000   26.2400   35.6900 N   0  0  0  0  0  0  0  0  0  0  0  0
   24.8500   26.2800   34.4800 C   0  0  0  0  0  0  0  0  0  0  0  0
   24.3100   25.7400   33.5400 O   0  0  0  0  0  0  0  0  0  0  0  0
   26.1800   26.9700   34.4700 C   0  0  0  0  0  0  0  0  0  0  0  0
   26.6500   27.6000   35.5500 N   0  0  0  0  0  0  0  0  0  0  0  0
   27.7900   28.2700   35.6200 N   0  0  0  0  0  0  0  0  0  0  0  0
   28.5400   28.3000   34.5100 C   0  0  0  0  0  0  0  0  0  0  0  0
   29.7700   28.9400   34.5600 C   0  0  0  0  0  0  0  0  0  0  0  0
   30.7000   28.8900   33.5000 C   0  0  0  0  0  0  0  0  0  0  0  0
   30.3700   28.1400   32.3700 C   0  0  0  0  0  0  0  0  0  0  0  0
   29.1200   27.5200   32.2800 C   0  0  0  0  0  0  0  0  0  0  0  0
   28.2100   27.6100   33.3300 C   0  0  0  0  0  0  0  0  0  0  0  0
   26.9700   26.9700   33.3100 C   0  0  0  0  0  0  0  0  0  0  0  0
   26.5300   26.2400   32.2200 N   0  0  0  0  0  0  0  0  0  0  0  0
   22.7713   26.1098   35.8358 C   0  0  0  0  0  0  0  0  0  0  0  0
   21.9507   26.2754   34.7628 N   0  0  0  0  0  0  0  0  0  0  0  0
   20.6005   26.1790   34.8595 C   0  0  0  0  0  0  0  0  0  0  0  0
   19.9931   25.9117   36.0956 C   0  0  0  0  0  0  0  0  0  0  0  0
   18.4994   25.7000   36.1641 C   0  0  0  0  0  0  0  0  0  0  0  0
   17.8956   26.6455   37.0258 O   0  0  0  0  0  0  0  0  0  0  0  0
   17.8176   26.1576   38.3518 C   0  0  0  0  0  0  0  0  0  0  0  0
   19.1316   26.3822   39.0989 C   0  0  0  0  0  0  0  0  0  0  0  0
   20.2322   25.5105   38.5694 C   0  0  0  0  0  0  0  0  0  0  0  0
   20.6954   24.5881   39.2933 O   0  0  0  0  0  0  0  0  0  0  0  0
   20.8139   25.7550   37.2331 C   0  0  0  0  0  0  0  0  0  0  0  0
   22.2098   25.8470   37.0949 C   0  0  0  0  0  0  0  0  0  0  0  0
   23.0143   25.7045   38.1806 F   0  0  0  0  0  0  0  0  0  0  0  0
   24.7693   26.2993   36.5646 H   0  0  0  0  0  0  0  0  0  0  0  0
   30.0500   29.4789   35.4574 H   0  0  0  0  0  0  0  0  0  0  0  0
   31.6575   29.3889   33.5759 H   0  0  0  0  0  0  0  0  0  0  0  0
   31.0739   28.0595   31.5517 H   0  0  0  0  0  0  0  0  0  0  0  0
   28.8953   26.9543   31.3856 H   0  0  0  0  0  0  0  0  0  0  0  0
   26.3235   25.2205   32.3142 H   0  0  0  0  0  0  0  0  0  0  0  0
   26.6263   26.6231   31.2536 H   0  0  0  0  0  0  0  0  0  0  0  0
   20.0026   26.2993   33.9654 H   0  0  0  0  0  0  0  0  0  0  0  0
   18.2831   24.6404   36.4323 H   0  0  0  0  0  0  0  0  0  0  0  0
   18.0494   25.8385   35.1580 H   0  0  0  0  0  0  0  0  0  0  0  0
   17.0303   26.7407   38.8748 H   0  0  0  0  0  0  0  0  0  0  0  0
   17.4943   25.0929   38.4147 H   0  0  0  0  0  0  0  0  0  0  0  0
   19.4331   27.4484   39.0107 H   0  0  0  0  0  0  0  0  0  0  0  0
   18.9726   26.1663   40.1781 H   0  0  0  0  0  0  0  0  0  0  0  0
  1  2  1  0
  2  3  2  0
  2  4  1  0
  4  5  2  0
  5  6  1  0
  6  7  2  0
  7  8  1  0
  8  9  2  0
  9 10  1  0
 10 11  2  0
 11 12  1  0
 12 13  2  0
 13 14  1  0
  1 15  1  0
 15 16  2  0
 16 17  1  0
 17 18  2  0
 18 19  1  0
 19 20  1  0
 20 21  1  0
 21 22  1  0
 22 23  1  0
 23 24  2  0
 23 25  1  0
 25 26  2  0
 26 27  1  0
 13  4  1  0
 26 15  1  0
 12  7  1  0
 25 18  1  0
  1 28  1  0
  8 29  1  0
  9 30  1  0
 10 31  1  0
 11 32  1  0
 14 33  1  0
 14 34  1  0
 17 35  1  0
 19 36  1  0
 19 37  1  0
 21 38  1  0
 21 39  1  0
 22 40  1  0
 22 41  1  0
M  END
$$$$
confid_1
     RDKit          3D

 41 44  0  0  0  0  0  0  0  0999 V2000
   24.2000   26.2400   35.6900 N   0  0  0  0  0  0  0  0  0  0  0  0
   24.8500   26.2800   34.4800 C   0  0  0  0  0  0  0  0  0  0  0  0
   24.3100   25.7400   33.5400 O   0  0  0  0  0  0  0  0  0  0  0  0
   26.1800   26.9700   34.4700 C   0  0  0  0  0  0  0  0  0  0  0  0
   26.6500   27.6000   35.5500 N   0  0  0  0  0  0  0  0  0  0  0  0
   27.7900   28.2700   35.6200 N   0  0  0  0  0  0  0  0  0  0  0  0
   28.5400   28.3000   34.5100 C   0  0  0  0  0  0  0  0  0  0  0  0
   29.7700   28.9400   34.5600 C   0  0  0  0  0  0  0  0  0  0  0  0
   30.7000   28.8900   33.5000 C   0  0  0  0  0  0  0  0  0  0  0  0
   30.3700   28.1400   32.3700 C   0  0  0  0  0  0  0  0  0  0  0  0
   29.1200   27.5200   32.2800 C   0  0  0  0  0  0  0  0  0  0  0  0
   28.2100   27.6100   33.3300 C   0  0  0  0  0  0  0  0  0  0  0  0
   26.9700   26.9700   33.3100 C   0  0  0  0  0  0  0  0  0  0  0  0
   26.5300   26.2400   32.2200 N   0  0  0  0  0  0  0  0  0  0  0  0
   22.7711   26.1103   35.8355 C   0  0  0  0  0  0  0  0  0  0  0  0
   21.9521   26.2808   34.7645 N   0  0  0  0  0  0  0  0  0  0  0  0
   20.6030   26.1864   34.8611 C   0  0  0  0  0  0  0  0  0  0  0  0
   19.9866   25.9073   36.0902 C   0  0  0  0  0  0  0  0  0  0  0  0
   18.4630   25.8884   36.0963 C   0  0  0  0  0  0  0  0  0  0  0  0
   17.8697   25.5461   37.3317 O   0  0  0  0  0  0  0  0  0  0  0  0
   18.2262   24.2331   37.7133 C   0  0  0  0  0  0  0  0  0  0  0  0
   19.2852   24.3029   38.8072 C   0  0  0  0  0  0  0  0  0  0  0  0
   20.2698   25.4163   38.5769 C   0  0  0  0  0  0  0  0  0  0  0  0
   20.7083   26.0492   39.5754 O   0  0  0  0  0  0  0  0  0  0  0  0
   20.8133   25.7221   37.2320 C   0  0  0  0  0  0  0  0  0  0  0  0
   22.2100   25.8380   37.0911 C   0  0  0  0  0  0  0  0  0  0  0  0
   23.0232   25.6514   38.1641 F   0  0  0  0  0  0  0  0  0  0  0  0
   24.7693   26.3001   36.5646 H   0  0  0  0  0  0  0  0  0  0  0  0
   30.0500   29.4789   35.4574 H   0  0  0  0  0  0  0  0  0  0  0  0
   31.6575   29.3889   33.5759 H   0  0  0  0  0  0  0  0  0  0  0  0
   31.0739   28.0595   31.5517 H   0  0  0  0  0  0  0  0  0  0  0  0
   28.8953   26.9543   31.3856 H   0  0  0  0  0  0  0  0  0  0  0  0
   26.3235   25.2205   32.3142 H   0  0  0  0  0  0  0  0  0  0  0  0
   26.6263   26.6231   31.2536 H   0  0  0  0  0  0  0  0  0  0  0  0
   20.0039   26.3416   33.9724 H   0  0  0  0  0  0  0  0  0  0  0  0
   18.0864   25.2158   35.2918 H   0  0  0  0  0  0  0  0  0  0  0  0
   18.1135   26.9089   35.8325 H   0  0  0  0  0  0  0  0  0  0  0  0
   18.5904   23.5939   36.8725 H   0  0  0  0  0  0  0  0  0  0  0  0
   17.3247   23.7263   38.1186 H   0  0  0  0  0  0  0  0  0  0  0  0
   19.8301   23.3364   38.8637 H   0  0  0  0  0  0  0  0  0  0  0  0
   18.7780   24.4660   39.7837 H   0  0  0  0  0  0  0  0  0  0  0  0
  1  2  1  0
  2  3  2  0
  2  4  1  0
  4  5  2  0
  5  6  1  0
  6  7  2  0
  7  8  1  0
  8  9  2  0
  9 10  1  0
 10 11  2  0
 11 12  1  0
 12 13  2  0
 13 14  1  0
  1 15  1  0
 15 16  2  0
 16 17  1  0
 17 18  2  0
 18 19  1  0
 19 20  1  0
 20 21  1  0
 21 22  1  0
 22 23  1  0
 23 24  2  0
 23 25  1  0
 25 26  2  0
 26 27  1  0
 13  4  1  0
 26 15  1  0
 12  7  1  0
 25 18  1  0
  1 28  1  0
  8 29  1  0
  9 30  1  0
 10 31  1  0
 11 32  1  0
 14 33  1  0
 14 34  1  0
 17 35  1  0
 19 36  1  0
 19 37  1  0
 21 38  1  0
 21 39  1  0
 22 40  1  0
 22 41  1  0
M  END
$$$$
confid_2
     RDKit          3D

 41 44  0  0  0  0  0  0  0  0999 V2000
   24.2000   26.2400   35.6900 N   0  0  0  0  0  0  0  0  0  0  0  0
   24.8500   26.2800   34.4800 C   0  0  0  0  0  0  0  0  0  0  0  0
   24.3100   25.7400   33.5400 O   0  0  0  0  0  0  0  0  0  0  0  0
   26.1800   26.9700   34.4700 C   0  0  0  0  0  0  0  0  0  0  0  0
   26.6500   27.6000   35.5500 N   0  0  0  0  0  0  0  0  0  0  0  0
   27.7900   28.2700   35.6200 N   0  0  0  0  0  0  0  0  0  0  0  0
   28.5400   28.3000   34.5100 C   0  0  0  0  0  0  0  0  0  0  0  0
   29.7700   28.9400   34.5600 C   0  0  0  0  0  0  0  0  0  0  0  0
   30.7000   28.8900   33.5000 C   0  0  0  0  0  0  0  0  0  0  0  0
   30.3700   28.1400   32.3700 C   0  0  0  0  0  0  0  0  0  0  0  0
   29.1200   27.5200   32.2800 C   0  0  0  0  0  0  0  0  0  0  0  0
   28.2100   27.6100   33.3300 C   0  0  0  0  0  0  0  0  0  0  0  0
   26.9700   26.9700   33.3100 C   0  0  0  0  0  0  0  0  0  0  0  0
   26.5300   26.2400   32.2200 N   0  0  0  0  0  0  0  0  0  0  0  0
   22.7713   26.1094   35.8358 C   0  0  0  0  0  0  0  0  0  0  0  0
   21.9506   26.2751   34.7630 N   0  0  0  0  0  0  0  0  0  0  0  0
   20.6002   26.1814   34.8606 C   0  0  0  0  0  0  0  0  0  0  0  0
   19.9937   25.9049   36.0950 C   0  0  0  0  0  0  0  0  0  0  0  0
   18.4876   25.9129   36.2059 C   0  0  0  0  0  0  0  0  0  0  0  0
   18.0085   24.6577   36.6491 O   0  0  0  0  0  0  0  0  0  0  0  0
   17.9056   24.6146   38.0597 C   0  0  0  0  0  0  0  0  0  0  0  0
   19.2514   24.2767   38.6995 C   0  0  0  0  0  0  0  0  0  0  0  0
   20.2395   25.3958   38.5483 C   0  0  0  0  0  0  0  0  0  0  0  0
   20.6148   26.0339   39.5687 O   0  0  0  0  0  0  0  0  0  0  0  0
   20.8163   25.7220   37.2274 C   0  0  0  0  0  0  0  0  0  0  0  0
   22.2106   25.8404   37.0938 C   0  0  0  0  0  0  0  0  0  0  0  0
   23.0177   25.6590   38.1718 F   0  0  0  0  0  0  0  0  0  0  0  0
   24.7689   26.3006   36.5648 H   0  0  0  0  0  0  0  0  0  0  0  0
   30.0500   29.4789   35.4574 H   0  0  0  0  0  0  0  0  0  0  0  0
   31.6575   29.3889   33.5759 H   0  0  0  0  0  0  0  0  0  0  0  0
   31.0739   28.0595   31.5517 H   0  0  0  0  0  0  0  0  0  0  0  0
   28.8953   26.9543   31.3856 H   0  0  0  0  0  0  0  0  0  0  0  0
   26.3235   25.2205   32.3142 H   0  0  0  0  0  0  0  0  0  0  0  0
   26.6263   26.6231   31.2536 H   0  0  0  0  0  0  0  0  0  0  0  0
   20.0001   26.3392   33.9738 H   0  0  0  0  0  0  0  0  0  0  0  0
   18.1631   26.7703   36.8392 H   0  0  0  0  0  0  0  0  0  0  0  0
   18.0340   26.1042   35.2101 H   0  0  0  0  0  0  0  0  0  0  0  0
   17.1975   23.7986   38.3166 H   0  0  0  0  0  0  0  0  0  0  0  0
   17.4696   25.5403   38.5013 H   0  0  0  0  0  0  0  0  0  0  0  0
   19.6652   23.3563   38.2335 H   0  0  0  0  0  0  0  0  0  0  0  0
   19.0926   24.0641   39.7794 H   0  0  0  0  0  0  0  0  0  0  0  0
  1  2  1  0
  2  3  2  0
  2  4  1  0
  4  5  2  0
  5  6  1  0
  6  7  2  0
  7  8  1  0
  8  9  2  0
  9 10  1  0
 10 11  2  0
 11 12  1  0
 12 13  2  0
 13 14  1  0
  1 15  1  0
 15 16  2  0
 16 17  1  0
 17 18  2  0
 18 19  1  0
 19 20  1  0
 20 21  1  0
 21 22  1  0
 22 23  1  0
 23 24  2  0
 23 25  1  0
 25 26  2  0
 26 27  1  0
 13  4  1  0
 26 15  1  0
 12  7  1  0
 25 18  1  0
  1 28  1  0
  8 29  1  0
  9 30  1  0
 10 31  1  0
 11 32  1  0
 14 33  1  0
 14 34  1  0
 17 35  1  0
 19 36  1  0
 19 37  1  0
 21 38  1  0
 21 39  1  0
 22 40  1  0
 22 41  1  0
M  END
$$$$
confid_3
     RDKit          3D

 41 44  0  0  0  0  0  0  0  0999 V2000
   24.2000   26.2400   35.6900 N   0  0  0  0  0  0  0  0  0  0  0  0
   24.8500   26.2800   34.4800 C   0  0  0  0  0  0  0  0  0  0  0  0
   24.3100   25.7400   33.5400 O   0  0  0  0  0  0  0  0  0  0  0  0
   26.1800   26.9700   34.4700 C   0  0  0  0  0  0  0  0  0  0  0  0
   26.6500   27.6000   35.5500 N   0  0  0  0  0  0  0  0  0  0  0  0
   27.7900   28.2700   35.6200 N   0  0  0  0  0  0  0  0  0  0  0  0
   28.5400   28.3000   34.5100 C   0  0  0  0  0  0  0  0  0  0  0  0
   29.7700   28.9400   34.5600 C   0  0  0  0  0  0  0  0  0  0  0  0
   30.7000   28.8900   33.5000 C   0  0  0  0  0  0  0  0  0  0  0  0
   30.3700   28.1400   32.3700 C   0  0  0  0  0  0  0  0  0  0  0  0
   29.1200   27.5200   32.2800 C   0  0  0  0  0  0  0  0  0  0  0  0
   28.2100   27.6100   33.3300 C   0  0  0  0  0  0  0  0  0  0  0  0
   26.9700   26.9700   33.3100 C   0  0  0  0  0  0  0  0  0  0  0  0
   26.5300   26.2400   32.2200 N   0  0  0  0  0  0  0  0  0  0  0  0
   22.7709   26.1114   35.8354 C   0  0  0  0  0  0  0  0  0  0  0  0
   21.9523   26.2817   34.7641 N   0  0  0  0  0  0  0  0  0  0  0  0
   20.6031   26.1891   34.8604 C   0  0  0  0  0  0  0  0  0  0  0  0
   19.9858   25.9182   36.0909 C   0  0  0  0  0  0  0  0  0  0  0  0
   18.4693   25.7708   36.0713 C   0  0  0  0  0  0  0  0  0  0  0  0
   17.8681   25.5618   37.3324 O   0  0  0  0  0  0  0  0  0  0  0  0
   18.0897   26.6678   38.1837 C   0  0  0  0  0  0  0  0  0  0  0  0
   19.1724   26.3087   39.1946 C   0  0  0  0  0  0  0  0  0  0  0  0
   20.2653   25.4731   38.5866 C   0  0  0  0  0  0  0  0  0  0  0  0
   20.7887   24.5639   39.2861 O   0  0  0  0  0  0  0  0  0  0  0  0
   20.8110   25.7506   37.2364 C   0  0  0  0  0  0  0  0  0  0  0  0
   22.2089   25.8454   37.0921 C   0  0  0  0  0  0  0  0  0  0  0  0
   23.0193   25.7000   38.1736 F   0  0  0  0  0  0  0  0  0  0  0  0
   24.7697   26.2984   36.5644 H   0  0  0  0  0  0  0  0  0  0  0  0
   30.0500   29.4789   35.4574 H   0  0  0  0  0  0  0  0  0  0  0  0
   31.6575   29.3889   33.5759 H   0  0  0  0  0  0  0  0  0  0  0  0
   31.0739   28.0595   31.5517 H   0  0  0  0  0  0  0  0  0  0  0  0
   28.8953   26.9543   31.3856 H   0  0  0  0  0  0  0  0  0  0  0  0
   26.6263   26.6231   31.2536 H   0  0  0  0  0  0  0  0  0  0  0  0
   26.3235   25.2205   32.3142 H   0  0  0  0  0  0  0  0  0  0  0  0
   20.0057   26.3201   33.9667 H   0  0  0  0  0  0  0  0  0  0  0  0
   18.2258   24.8914   35.4384 H   0  0  0  0  0  0  0  0  0  0  0  0
   18.0066   26.6506   35.5682 H   0  0  0  0  0  0  0  0  0  0  0  0
   17.1477   26.8871   38.7297 H   0  0  0  0  0  0  0  0  0  0  0  0
   18.3660   27.6095   37.6499 H   0  0  0  0  0  0  0  0  0  0  0  0
   19.6122   27.2367   39.6185 H   0  0  0  0  0  0  0  0  0  0  0  0
   18.7057   25.7404   40.0292 H   0  0  0  0  0  0  0  0  0  0  0  0
  1  2  1  0
  2  3  2  0
  2  4  1  0
  4  5  2  0
  5  6  1  0
  6  7  2  0
  7  8  1  0
  8  9  2  0
  9 10  1  0
 10 11  2  0
 11 12  1  0
 12 13  2  0
 13 14  1  0
  1 15  1  0
 15 16  2  0
 16 17  1  0
 17 18  2  0
 18 19  1  0
 19 20  1  0
 20 21  1  0
 21 22  1  0
 22 23  1  0
 23 24  2  0
 23 25  1  0
 25 26  2  0
 26 27  1  0
 13  4  1  0
 26 15  1  0
 12  7  1  0
 25 18  1  0
  1 28  1  0
  8 29  1  0
  9 30  1  0
 10 31  1  0
 11 32  1  0
 14 33  1  0
 14 34  1  0
 17 35  1  0
 19 36  1  0
 19 37  1  0
 21 38  1  0
 21 39  1  0
 22 40  1  0
 22 41  1  0
M  END
$$$$
confid_4
     RDKit          3D

 41 44  0  0  0  0  0  0  0  0999 V2000
   24.2000   26.2400   35.6900 N   0  0  0  0  0  0  0  0  0  0  0  0
   24.8500   26.2800   34.4800 C   0  0  0  0  0  0  0  0  0  0  0  0
   24.3100   25.7400   33.5400 O   0  0  0  0  0  0  0  0  0  0  0  0
   26.1800   26.9700   34.4700 C   0  0  0  0  0  0  0  0  0  0  0  0
   26.6500   27.6000   35.5500 N   0  0  0  0  0  0  0  0  0  0  0  0
   27.7900   28.2700   35.6200 N   0  0  0  0  0  0  0  0  0  0  0  0
   28.5400   28.3000   34.5100 C   0  0  0  0  0  0  0  0  0  0  0  0
   29.7700   28.9400   34.5600 C   0  0  0  0  0  0  0  0  0  0  0  0
   30.7000   28.8900   33.5000 C   0  0  0  0  0  0  0  0  0  0  0  0
   30.3700   28.1400   32.3700 C   0  0  0  0  0  0  0  0  0  0  0  0
   29.1200   27.5200   32.2800 C   0  0  0  0  0  0  0  0  0  0  0  0
   28.2100   27.6100   33.3300 C   0  0  0  0  0  0  0  0  0  0  0  0
   26.9700   26.9700   33.3100 C   0  0  0  0  0  0  0  0  0  0  0  0
   26.5300   26.2400   32.2200 N   0  0  0  0  0  0  0  0  0  0  0  0
   23.2462   25.2242   36.0621 C   0  0  0  0  0  0  0  0  0  0  0  0
   23.1293   24.0853   35.3264 N   0  0  0  0  0  0  0  0  0  0  0  0
   22.2580   23.0970   35.6516 C   0  0  0  0  0  0  0  0  0  0  0  0
   21.4412   23.2136   36.7862 C   0  0  0  0  0  0  0  0  0  0  0  0
   20.4018   22.1556   37.0709 C   0  0  0  0  0  0  0  0  0  0  0  0
   20.6260   21.5560   38.3324 O   0  0  0  0  0  0  0  0  0  0  0  0
   19.9200   22.2312   39.3562 C   0  0  0  0  0  0  0  0  0  0  0  0
   20.6970   23.4518   39.8476 C   0  0  0  0  0  0  0  0  0  0  0  0
   20.7476   24.5369   38.8123 C   0  0  0  0  0  0  0  0  0  0  0  0
   20.1324   25.6180   39.0166 O   0  0  0  0  0  0  0  0  0  0  0  0
   21.5522   24.3728   37.5837 C   0  0  0  0  0  0  0  0  0  0  0  0
   22.4548   25.3837   37.2101 C   0  0  0  0  0  0  0  0  0  0  0  0
   22.5783   26.5035   37.9698 F   0  0  0  0  0  0  0  0  0  0  0  0
   24.3952   26.9926   36.3883 H   0  0  0  0  0  0  0  0  0  0  0  0
   30.0500   29.4789   35.4574 H   0  0  0  0  0  0  0  0  0  0  0  0
   31.6575   29.3889   33.5759 H   0  0  0  0  0  0  0  0  0  0  0  0
   31.0739   28.0595   31.5517 H   0  0  0  0  0  0  0  0  0  0  0  0
   28.8953   26.9543   31.3856 H   0  0  0  0  0  0  0  0  0  0  0  0
   26.6266   26.6229   31.2536 H   0  0  0  0  0  0  0  0  0  0  0  0
   26.3233   25.2205   32.3143 H   0  0  0  0  0  0  0  0  0  0  0  0
   22.1959   22.2245   35.0141 H   0  0  0  0  0  0  0  0  0  0  0  0
   20.4613   21.3495   36.3089 H   0  0  0  0  0  0  0  0  0  0  0  0
   19.3827   22.5899   36.9510 H   0  0  0  0  0  0  0  0  0  0  0  0
   18.8778   22.5040   39.0709 H   0  0  0  0  0  0  0  0  0  0  0  0
   19.8220   21.5292   40.2111 H   0  0  0  0  0  0  0  0  0  0  0  0
   21.7331   23.1513   40.1153 H   0  0  0  0  0  0  0  0  0  0  0  0
   20.2111   23.8397   40.7695 H   0  0  0  0  0  0  0  0  0  0  0  0
  1  2  1  0
  2  3  2  0
  2  4  1  0
  4  5  2  0
  5  6  1  0
  6  7  2  0
  7  8  1  0
  8  9  2  0
  9 10  1  0
 10 11  2  0
 11 12  1  0
 12 13  2  0
 13 14  1  0
  1 15  1  0
 15 16  2  0
 16 17  1  0
 17 18  2  0
 18 19  1  0
 19 20  1  0
 20 21  1  0
 21 22  1  0
 22 23  1  0
 23 24  2  0
 23 25  1  0
 25 26  2  0
 26 27  1  0
 13  4  1  0
 26 15  1  0
 12  7  1  0
 25 18  1  0
  1 28  1  0
  8 29  1  0
  9 30  1  0
 10 31  1  0
 11 32  1  0
 14 33  1  0
 14 34  1  0
 17 35  1  0
 19 36  1  0
 19 37  1  0
 21 38  1  0
 21 39  1  0
 22 40  1  0
 22 41  1  0
M  END
$$$$
confid_5
     RDKit          3D

 41 44  0  0  0  0  0  0  0  0999 V2000
   24.2000   26.2400   35.6900 N   0  0  0  0  0  0  0  0  0  0  0  0
   24.8500   26.2800   34.4800 C   0  0  0  0  0  0  0  0  0  0  0  0
   24.3100   25.7400   33.5400 O   0  0  0  0  0  0  0  0  0  0  0  0
   26.1800   26.9700   34.4700 C   0  0  0  0  0  0  0  0  0  0  0  0
   26.6500   27.6000   35.5500 N   0  0  0  0  0  0  0  0  0  0  0  0
   27.7900   28.2700   35.6200 N   0  0  0  0  0  0  0  0  0  0  0  0
   28.5400   28.3000   34.5100 C   0  0  0  0  0  0  0  0  0  0  0  0
   29.7700   28.9400   34.5600 C   0  0  0  0  0  0  0  0  0  0  0  0
   30.7000   28.8900   33.5000 C   0  0  0  0  0  0  0  0  0  0  0  0
   30.3700   28.1400   32.3700 C   0  0  0  0  0  0  0  0  0  0  0  0
   29.1200   27.5200   32.2800 C   0  0  0  0  0  0  0  0  0  0  0  0
   28.2100   27.6100   33.3300 C   0  0  0  0  0  0  0  0  0  0  0  0
   26.9700   26.9700   33.3100 C   0  0  0  0  0  0  0  0  0  0  0  0
   26.5300   26.2400   32.2200 N   0  0  0  0  0  0  0  0  0  0  0  0
   23.2471   25.2234   36.0624 C   0  0  0  0  0  0  0  0  0  0  0  0
   23.1347   24.0841   35.3301 N   0  0  0  0  0  0  0  0  0  0  0  0
   22.2661   23.0953   35.6560 C   0  0  0  0  0  0  0  0  0  0  0  0
   21.4366   23.2074   36.7820 C   0  0  0  0  0  0  0  0  0  0  0  0
   20.5466   22.0099   37.0909 C   0  0  0  0  0  0  0  0  0  0  0  0
   19.6787   22.1728   38.1935 O   0  0  0  0  0  0  0  0  0  0  0  0
   18.7634   23.2240   37.9610 C   0  0  0  0  0  0  0  0  0  0  0  0
   19.1991   24.4485   38.7571 C   0  0  0  0  0  0  0  0  0  0  0  0
   20.6940   24.6138   38.7759 C   0  0  0  0  0  0  0  0  0  0  0  0
   21.2397   25.0431   39.8284 O   0  0  0  0  0  0  0  0  0  0  0  0
   21.5271   24.3868   37.5709 C   0  0  0  0  0  0  0  0  0  0  0  0
   22.4490   25.3863   37.2035 C   0  0  0  0  0  0  0  0  0  0  0  0
   22.5447   26.5294   37.9326 F   0  0  0  0  0  0  0  0  0  0  0  0
   24.3954   26.9925   36.3884 H   0  0  0  0  0  0  0  0  0  0  0  0
   30.0500   29.4789   35.4574 H   0  0  0  0  0  0  0  0  0  0  0  0
   31.6575   29.3889   33.5759 H   0  0  0  0  0  0  0  0  0  0  0  0
   31.0739   28.0595   31.5517 H   0  0  0  0  0  0  0  0  0  0  0  0
   28.8953   26.9543   31.3856 H   0  0  0  0  0  0  0  0  0  0  0  0
   26.6266   26.6229   31.2536 H   0  0  0  0  0  0  0  0  0  0  0  0
   26.3233   25.2205   32.3144 H   0  0  0  0  0  0  0  0  0  0  0  0
   22.2298   22.2074   35.0370 H   0  0  0  0  0  0  0  0  0  0  0  0
   21.2098   21.1481   37.3160 H   0  0  0  0  0  0  0  0  0  0  0  0
   19.9646   21.7230   36.1852 H   0  0  0  0  0  0  0  0  0  0  0  0
   18.6402   23.4954   36.8843 H   0  0  0  0  0  0  0  0  0  0  0  0
   17.7607   22.9037   38.3155 H   0  0  0  0  0  0  0  0  0  0  0  0
   18.8348   24.3414   39.8027 H   0  0  0  0  0  0  0  0  0  0  0  0
   18.7340   25.3607   38.3262 H   0  0  0  0  0  0  0  0  0  0  0  0
  1  2  1  0
  2  3  2  0
  2  4  1  0
  4  5  2  0
  5  6  1  0
  6  7  2  0
  7  8  1  0
  8  9  2  0
  9 10  1  0
 10 11  2  0
 11 12  1  0
 12 13  2  0
 13 14  1  0
  1 15  1  0
 15 16  2  0
 16 17  1  0
 17 18  2  0
 18 19  1  0
 19 20  1  0
 20 21  1  0
 21 22  1  0
 22 23  1  0
 23 24  2  0
 23 25  1  0
 25 26  2  0
 26 27  1  0
 13  4  1  0
 26 15  1  0
 12  7  1  0
 25 18  1  0
  1 28  1  0
  8 29  1  0
  9 30  1  0
 10 31  1  0
 11 32  1  0
 14 33  1  0
 14 34  1  0
 17 35  1  0
 19 36  1  0
 19 37  1  0
 21 38  1  0
 21 39  1  0
 22 40  1  0
 22 41  1  0
M  END
$$$$
confid_6
     RDKit          3D

 41 44  0  0  0  0  0  0  0  0999 V2000
   24.2000   26.2400   35.6900 N   0  0  0  0  0  0  0  0  0  0  0  0
   24.8500   26.2800   34.4800 C   0  0  0  0  0  0  0  0  0  0  0  0
   24.3100   25.7400   33.5400 O   0  0  0  0  0  0  0  0  0  0  0  0
   26.1800   26.9700   34.4700 C   0  0  0  0  0  0  0  0  0  0  0  0
   26.6500   27.6000   35.5500 N   0  0  0  0  0  0  0  0  0  0  0  0
   27.7900   28.2700   35.6200 N   0  0  0  0  0  0  0  0  0  0  0  0
   28.5400   28.3000   34.5100 C   0  0  0  0  0  0  0  0  0  0  0  0
   29.7700   28.9400   34.5600 C   0  0  0  0  0  0  0  0  0  0  0  0
   30.7000   28.8900   33.5000 C   0  0  0  0  0  0  0  0  0  0  0  0
   30.3700   28.1400   32.3700 C   0  0  0  0  0  0  0  0  0  0  0  0
   29.1200   27.5200   32.2800 C   0  0  0  0  0  0  0  0  0  0  0  0
   28.2100   27.6100   33.3300 C   0  0  0  0  0  0  0  0  0  0  0  0
   26.9700   26.9700   33.3100 C   0  0  0  0  0  0  0  0  0  0  0  0
   26.5300   26.2400   32.2200 N   0  0  0  0  0  0  0  0  0  0  0  0
   23.2460   25.2246   36.0622 C   0  0  0  0  0  0  0  0  0  0  0  0
   23.1331   24.0829   35.3305 N   0  0  0  0  0  0  0  0  0  0  0  0
   22.2643   23.0933   35.6585 C   0  0  0  0  0  0  0  0  0  0  0  0
   21.4376   23.2170   36.7851 C   0  0  0  0  0  0  0  0  0  0  0  0
   20.5567   22.0615   37.1964 C   0  0  0  0  0  0  0  0  0  0  0  0
   19.1950   22.4450   37.2057 O   0  0  0  0  0  0  0  0  0  0  0  0
   18.8037   22.9255   38.4780 C   0  0  0  0  0  0  0  0  0  0  0  0
   19.1745   24.3982   38.6483 C   0  0  0  0  0  0  0  0  0  0  0  0
   20.6593   24.5939   38.7435 C   0  0  0  0  0  0  0  0  0  0  0  0
   21.1655   24.9796   39.8317 O   0  0  0  0  0  0  0  0  0  0  0  0
   21.5257   24.3908   37.5637 C   0  0  0  0  0  0  0  0  0  0  0  0
   22.4469   25.3898   37.2041 C   0  0  0  0  0  0  0  0  0  0  0  0
   22.5390   26.5297   37.9379 F   0  0  0  0  0  0  0  0  0  0  0  0
   24.3950   26.9927   36.3884 H   0  0  0  0  0  0  0  0  0  0  0  0
   30.0499   29.4792   35.4573 H   0  0  0  0  0  0  0  0  0  0  0  0
   31.6568   29.3902   33.5752 H   0  0  0  0  0  0  0  0  0  0  0  0
   31.0715   28.0646   31.5492 H   0  0  0  0  0  0  0  0  0  0  0  0
   28.8856   26.9764   31.3746 H   0  0  0  0  0  0  0  0  0  0  0  0
   25.6750   26.5392   31.7005 H   0  0  0  0  0  0  0  0  0  0  0  0
   27.1525   25.5362   31.7651 H   0  0  0  0  0  0  0  0  0  0  0  0
   22.2327   22.2016   35.0461 H   0  0  0  0  0  0  0  0  0  0  0  0
   20.6585   21.2279   36.4695 H   0  0  0  0  0  0  0  0  0  0  0  0
   20.9156   21.6438   38.1650 H   0  0  0  0  0  0  0  0  0  0  0  0
   19.1924   22.3111   39.3227 H   0  0  0  0  0  0  0  0  0  0  0  0
   17.6974   22.8490   38.5364 H   0  0  0  0  0  0  0  0  0  0  0  0
   18.6883   24.7868   39.5699 H   0  0  0  0  0  0  0  0  0  0  0  0
   18.7813   24.9835   37.7891 H   0  0  0  0  0  0  0  0  0  0  0  0
  1  2  1  0
  2  3  2  0
  2  4  1  0
  4  5  2  0
  5  6  1  0
  6  7  2  0
  7  8  1  0
  8  9  2  0
  9 10  1  0
 10 11  2  0
 11 12  1  0
 12 13  2  0
 13 14  1  0
  1 15  1  0
 15 16  2  0
 16 17  1  0
 17 18  2  0
 18 19  1  0
 19 20  1  0
 20 21  1  0
 21 22  1  0
 22 23  1  0
 23 24  2  0
 23 25  1  0
 25 26  2  0
 26 27  1  0
 13  4  1  0
 26 15  1  0
 12  7  1  0
 25 18  1  0
  1 28  1  0
  8 29  1  0
  9 30  1  0
 10 31  1  0
 11 32  1  0
 14 33  1  0
 14 34  1  0
 17 35  1  0
 19 36  1  0
 19 37  1  0
 21 38  1  0
 21 39  1  0
 22 40  1  0
 22 41  1  0
M  END
$$$$
