confid_0
     RDKit          3D

 45 48  0  0  0  0  0  0  0  0999 V2000
   24.6900   26.1200   35.5300 N   0  0  0  0  0  0  0  0  0  0  0  0
   25.6600   25.6700   34.6600 C   0  0  0  0  0  0  0  0  0  0  0  0
   25.2400   25.0100   33.7200 O   0  0  0  0  0  0  0  0  0  0  0  0
   27.0300   26.2200   34.8800 C   0  0  0  0  0  0  0  0  0  0  0  0
   27.3500   26.7300   36.0700 N   0  0  0  0  0  0  0  0  0  0  0  0
   28.5700   27.1800   36.3300 N   0  0  0  0  0  0  0  0  0  0  0  0
   29.5300   27.1100   35.3900 C   0  0  0  0  0  0  0  0  0  0  0  0
   30.8300   27.5700   35.6500 C   0  0  0  0  0  0  0  0  0  0  0  0
   31.8500   27.5400   34.6900 C   0  0  0  0  0  0  0  0  0  0  0  0
   31.5100   27.1200   33.4000 C   0  0  0  0  0  0  0  0  0  0  0  0
   30.2200   26.6300   33.1100 C   0  0  0  0  0  0  0  0  0  0  0  0
   29.2400   26.6600   34.1000 C   0  0  0  0  0  0  0  0  0  0  0  0
   27.9300   26.2600   33.8100 C   0  0  0  0  0  0  0  0  0  0  0  0
   27.5200   25.7100   32.6100 N   0  0  0  0  0  0  0  0  0  0  0  0
   31.1344   28.0883   36.9544 N   0  0  0  0  0  0  0  0  0  0  0  0
   30.7139   29.4272   37.3653 C   0  0  0  0  0  0  0  0  0  0  0  0
   31.7119   29.8770   38.4533 C   0  0  0  0  0  0  0  0  0  0  0  0
   32.6046   28.6931   38.6298 C   0  0  0  0  0  0  0  0  0  0  0  0
   33.6230   28.4752   39.5778 C   0  0  0  0  0  0  0  0  0  0  0  0
   34.0279   29.4779   40.5330 N   0  0  0  0  0  0  0  0  0  0  0  0
   34.1553   30.8874   40.1533 C   0  0  0  0  0  0  0  0  0  0  0  0
   34.4469   29.0495   41.8698 C   0  0  0  0  0  0  0  0  0  0  0  0
   34.2134   27.2443   39.6110 N   0  0  0  0  0  0  0  0  0  0  0  0
   33.8551   26.2349   38.7672 C   0  0  0  0  0  0  0  0  0  0  0  0
   32.8390   26.4279   37.8227 C   0  0  0  0  0  0  0  0  0  0  0  0
   32.2370   27.6945   37.7633 C   0  0  0  0  0  0  0  0  0  0  0  0
   32.3111   25.0679   36.8421 Cl  0  0  0  0  0  0  0  0  0  0  0  0
   23.6981   25.8077   35.4228 H   0  0  0  0  0  0  0  0  0  0  0  0
   24.8908   26.7905   36.3050 H   0  0  0  0  0  0  0  0  0  0  0  0
   32.8490   27.8934   34.9126 H   0  0  0  0  0  0  0  0  0  0  0  0
   32.2651   27.1222   32.6247 H   0  0  0  0  0  0  0  0  0  0  0  0
   30.0114   26.2787   32.1078 H   0  0  0  0  0  0  0  0  0  0  0  0
   27.6978   26.2229   31.7183 H   0  0  0  0  0  0  0  0  0  0  0  0
   27.3416   24.6831   32.5416 H   0  0  0  0  0  0  0  0  0  0  0  0
   30.7460   30.1255   36.5000 H   0  0  0  0  0  0  0  0  0  0  0  0
   29.6812   29.3876   37.7733 H   0  0  0  0  0  0  0  0  0  0  0  0
   32.2918   30.7523   38.0929 H   0  0  0  0  0  0  0  0  0  0  0  0
   31.1842   30.1129   39.4023 H   0  0  0  0  0  0  0  0  0  0  0  0
   33.1779   31.3990   40.2653 H   0  0  0  0  0  0  0  0  0  0  0  0
   34.8943   31.4080   40.7987 H   0  0  0  0  0  0  0  0  0  0  0  0
   34.5147   30.9718   39.1056 H   0  0  0  0  0  0  0  0  0  0  0  0
   33.6437   28.4397   42.3352 H   0  0  0  0  0  0  0  0  0  0  0  0
   35.3737   28.4421   41.7987 H   0  0  0  0  0  0  0  0  0  0  0  0
   34.6427   29.9196   42.5319 H   0  0  0  0  0  0  0  0  0  0  0  0
   34.3445   25.2735   38.8505 H   0  0  0  0  0  0  0  0  0  0  0  0
  1  2  1  0
  2  3  2  0
  2  4  1  0
  4  5  2  0
  5  6  1  0
  6  7  2  0
  7  8  1  0
  8  9  2  0
  9 10  1  0
 10 11  2  0
 11 12  1  0
 12 13  2  0
 13 14  1  0
  8 15  1  0
 15 16  1  0
 16 17  1  0
 17 18  1  0
 18 19  2  0
 19 20  1  0
 20 21  1  0
 20 22  1  0
 19 23  1  0
 23 24  2  0
 24 25  1  0
 25 26  2  0
 25 27  1  0
 13  4  1  0
 26 15  1  0
 12  7  1  0
 26 18  1  0
  1 28  1  0
  1 29  1  0
  9 30  1  0
 10 31  1  0
 11 32  1  0
 14 33  1  0
 14 34  1  0
 16 35  1  0
 16 36  1  0
 17 37  1  0
 17 38  1  0
 21 39  1  0
 21 40  1  0
 21 41  1  0
 22 42  1  0
 22 43  1  0
 22 44  1  0
 24 45  1  0
M  END
$$$$
confid_1
     RDKit          3D

 45 48  0  0  0  0  0  0  0  0999 V2000
   24.6900   26.1200   35.5300 N   0  0  0  0  0  0  0  0  0  0  0  0
   25.6600   25.6700   34.6600 C   0  0  0  0  0  0  0  0  0  0  0  0
   25.2400   25.0100   33.7200 O   0  0  0  0  0  0  0  0  0  0  0  0
   27.0300   26.2200   34.8800 C   0  0  0  0  0  0  0  0  0  0  0  0
   27.3500   26.7300   36.0700 N   0  0  0  0  0  0  0  0  0  0  0  0
   28.5700   27.1800   36.3300 N   0  0  0  0  0  0  0  0  0  0  0  0
   29.5300   27.1100   35.3900 C   0  0  0  0  0  0  0  0  0  0  0  0
   30.8300   27.5700   35.6500 C   0  0  0  0  0  0  0  0  0  0  0  0
   31.8500   27.5400   34.6900 C   0  0  0  0  0  0  0  0  0  0  0  0
   31.5100   27.1200   33.4000 C   0  0  0  0  0  0  0  0  0  0  0  0
   30.2200   26.6300   33.1100 C   0  0  0  0  0  0  0  0  0  0  0  0
   29.2400   26.6600   34.1000 C   0  0  0  0  0  0  0  0  0  0  0  0
   27.9300   26.2600   33.8100 C   0  0  0  0  0  0  0  0  0  0  0  0
   27.5200   25.7100   32.6100 N   0  0  0  0  0  0  0  0  0  0  0  0
   31.1341   28.0858   36.9540 N   0  0  0  0  0  0  0  0  0  0  0  0
   30.8442   29.4744   37.3073 C   0  0  0  0  0  0  0  0  0  0  0  0
   31.7648   29.8189   38.4966 C   0  0  0  0  0  0  0  0  0  0  0  0
   32.5557   28.5704   38.7088 C   0  0  0  0  0  0  0  0  0  0  0  0
   33.6097   28.3197   39.6085 C   0  0  0  0  0  0  0  0  0  0  0  0
   34.1070   29.3153   40.5265 N   0  0  0  0  0  0  0  0  0  0  0  0
   33.1977   30.1945   41.2663 C   0  0  0  0  0  0  0  0  0  0  0  0
   35.5409   29.3424   40.8257 C   0  0  0  0  0  0  0  0  0  0  0  0
   34.2002   27.0888   39.5751 N   0  0  0  0  0  0  0  0  0  0  0  0
   33.7935   26.1021   38.7266 C   0  0  0  0  0  0  0  0  0  0  0  0
   32.7492   26.3311   37.8217 C   0  0  0  0  0  0  0  0  0  0  0  0
   32.1626   27.6069   37.8141 C   0  0  0  0  0  0  0  0  0  0  0  0
   32.1963   25.0104   36.8014 Cl  0  0  0  0  0  0  0  0  0  0  0  0
   23.6981   25.8078   35.4227 H   0  0  0  0  0  0  0  0  0  0  0  0
   24.8908   26.7905   36.3050 H   0  0  0  0  0  0  0  0  0  0  0  0
   32.8488   27.8931   34.9141 H   0  0  0  0  0  0  0  0  0  0  0  0
   32.2637   27.1272   32.6233 H   0  0  0  0  0  0  0  0  0  0  0  0
   30.0101   26.3034   32.1004 H   0  0  0  0  0  0  0  0  0  0  0  0
   28.1317   25.0435   32.0893 H   0  0  0  0  0  0  0  0  0  0  0  0
   26.6941   26.1028   32.1054 H   0  0  0  0  0  0  0  0  0  0  0  0
   29.7744   29.5764   37.5901 H   0  0  0  0  0  0  0  0  0  0  0  0
   31.0672   30.1433   36.4469 H   0  0  0  0  0  0  0  0  0  0  0  0
   32.4373   30.6672   38.2457 H   0  0  0  0  0  0  0  0  0  0  0  0
   31.1502   30.0497   39.3917 H   0  0  0  0  0  0  0  0  0  0  0  0
   32.2672   29.6486   41.5307 H   0  0  0  0  0  0  0  0  0  0  0  0
   32.9572   31.0893   40.6572 H   0  0  0  0  0  0  0  0  0  0  0  0
   33.6602   30.5378   42.2160 H   0  0  0  0  0  0  0  0  0  0  0  0
   36.1178   29.4291   39.8806 H   0  0  0  0  0  0  0  0  0  0  0  0
   35.8352   28.4092   41.3505 H   0  0  0  0  0  0  0  0  0  0  0  0
   35.8051   30.2093   41.4680 H   0  0  0  0  0  0  0  0  0  0  0  0
   34.2815   25.1370   38.7608 H   0  0  0  0  0  0  0  0  0  0  0  0
  1  2  1  0
  2  3  2  0
  2  4  1  0
  4  5  2  0
  5  6  1  0
  6  7  2  0
  7  8  1  0
  8  9  2  0
  9 10  1  0
 10 11  2  0
 11 12  1  0
 12 13  2  0
 13 14  1  0
  8 15  1  0
 15 16  1  0
 16 17  1  0
 17 18  1  0
 18 19  2  0
 19 20  1  0
 20 21  1  0
 20 22  1  0
 19 23  1  0
 23 24  2  0
 24 25  1  0
 25 26  2  0
 25 27  1  0
 13  4  1  0
 26 15  1  0
 12  7  1  0
 26 18  1  0
  1 28  1  0
  1 29  1  0
  9 30  1  0
 10 31  1  0
 11 32  1  0
 14 33  1  0
 14 34  1  0
 16 35  1  0
 16 36  1  0
 17 37  1  0
 17 38  1  0
 21 39  1  0
 21 40  1  0
 21 41  1  0
 22 42  1  0
 22 43  1  0
 22 44  1  0
 24 45  1  0
M  END
$$$$
confid_2
     RDKit          3D

 45 48  0  0  0  0  0  0  0  0999 V2000
   24.6900   26.1200   35.5300 N   0  0  0  0  0  0  0  0  0  0  0  0
   25.6600   25.6700   34.6600 C   0  0  0  0  0  0  0  0  0  0  0  0
   25.2400   25.0100   33.7200 O   0  0  0  0  0  0  0  0  0  0  0  0
   27.0300   26.2200   34.8800 C   0  0  0  0  0  0  0  0  0  0  0  0
   27.3500   26.7300   36.0700 N   0  0  0  0  0  0  0  0  0  0  0  0
   28.5700   27.1800   36.3300 N   0  0  0  0  0  0  0  0  0  0  0  0
   29.5300   27.1100   35.3900 C   0  0  0  0  0  0  0  0  0  0  0  0
   30.8300   27.5700   35.6500 C   0  0  0  0  0  0  0  0  0  0  0  0
   31.8500   27.5400   34.6900 C   0  0  0  0  0  0  0  0  0  0  0  0
   31.5100   27.1200   33.4000 C   0  0  0  0  0  0  0  0  0  0  0  0
   30.2200   26.6300   33.1100 C   0  0  0  0  0  0  0  0  0  0  0  0
   29.2400   26.6600   34.1000 C   0  0  0  0  0  0  0  0  0  0  0  0
   27.9300   26.2600   33.8100 C   0  0  0  0  0  0  0  0  0  0  0  0
   27.5200   25.7100   32.6100 N   0  0  0  0  0  0  0  0  0  0  0  0
   31.1474   28.0390   36.9687 N   0  0  0  0  0  0  0  0  0  0  0  0
   31.4595   27.1078   38.0517 C   0  0  0  0  0  0  0  0  0  0  0  0
   32.2664   27.9110   39.0932 C   0  0  0  0  0  0  0  0  0  0  0  0
   32.3786   29.2705   38.4864 C   0  0  0  0  0  0  0  0  0  0  0  0
   33.0739   30.4042   38.9500 C   0  0  0  0  0  0  0  0  0  0  0  0
   33.8331   30.4077   40.1767 N   0  0  0  0  0  0  0  0  0  0  0  0
   33.3220   29.7710   41.3935 C   0  0  0  0  0  0  0  0  0  0  0  0
   35.0709   31.1892   40.2355 C   0  0  0  0  0  0  0  0  0  0  0  0
   33.0489   31.5301   38.1777 N   0  0  0  0  0  0  0  0  0  0  0  0
   32.3639   31.5981   37.0007 C   0  0  0  0  0  0  0  0  0  0  0  0
   31.6683   30.4816   36.5197 C   0  0  0  0  0  0  0  0  0  0  0  0
   31.7236   29.3029   37.2809 C   0  0  0  0  0  0  0  0  0  0  0  0
   30.7257   30.6313   35.0433 Cl  0  0  0  0  0  0  0  0  0  0  0  0
   23.6981   25.8077   35.4228 H   0  0  0  0  0  0  0  0  0  0  0  0
   24.8908   26.7905   36.3050 H   0  0  0  0  0  0  0  0  0  0  0  0
   32.8526   27.8796   34.9178 H   0  0  0  0  0  0  0  0  0  0  0  0
   32.2658   27.1197   32.6254 H   0  0  0  0  0  0  0  0  0  0  0  0
   30.0115   26.2783   32.1079 H   0  0  0  0  0  0  0  0  0  0  0  0
   27.6978   26.2229   31.7183 H   0  0  0  0  0  0  0  0  0  0  0  0
   27.3415   24.6832   32.5416 H   0  0  0  0  0  0  0  0  0  0  0  0
   30.5190   26.7152   38.4946 H   0  0  0  0  0  0  0  0  0  0  0  0
   32.0706   26.2622   37.6660 H   0  0  0  0  0  0  0  0  0  0  0  0
   33.2743   27.4677   39.2426 H   0  0  0  0  0  0  0  0  0  0  0  0
   31.7051   27.9542   40.0498 H   0  0  0  0  0  0  0  0  0  0  0  0
   33.7546   30.2422   42.3015 H   0  0  0  0  0  0  0  0  0  0  0  0
   33.5935   28.6959   41.4008 H   0  0  0  0  0  0  0  0  0  0  0  0
   32.2192   29.8890   41.4538 H   0  0  0  0  0  0  0  0  0  0  0  0
   35.7491   30.8766   39.4135 H   0  0  0  0  0  0  0  0  0  0  0  0
   35.6045   31.0324   41.1970 H   0  0  0  0  0  0  0  0  0  0  0  0
   34.8406   32.2703   40.1296 H   0  0  0  0  0  0  0  0  0  0  0  0
   32.3575   32.5248   36.4422 H   0  0  0  0  0  0  0  0  0  0  0  0
  1  2  1  0
  2  3  2  0
  2  4  1  0
  4  5  2  0
  5  6  1  0
  6  7  2  0
  7  8  1  0
  8  9  2  0
  9 10  1  0
 10 11  2  0
 11 12  1  0
 12 13  2  0
 13 14  1  0
  8 15  1  0
 15 16  1  0
 16 17  1  0
 17 18  1  0
 18 19  2  0
 19 20  1  0
 20 21  1  0
 20 22  1  0
 19 23  1  0
 23 24  2  0
 24 25  1  0
 25 26  2  0
 25 27  1  0
 13  4  1  0
 26 15  1  0
 12  7  1  0
 26 18  1  0
  1 28  1  0
  1 29  1  0
  9 30  1  0
 10 31  1  0
 11 32  1  0
 14 33  1  0
 14 34  1  0
 16 35  1  0
 16 36  1  0
 17 37  1  0
 17 38  1  0
 21 39  1  0
 21 40  1  0
 21 41  1  0
 22 42  1  0
 22 43  1  0
 22 44  1  0
 24 45  1  0
M  END
$$$$
confid_3
     RDKit          3D

 45 48  0  0  0  0  0  0  0  0999 V2000
   24.6900   26.1200   35.5300 N   0  0  0  0  0  0  0  0  0  0  0  0
   25.6600   25.6700   34.6600 C   0  0  0  0  0  0  0  0  0  0  0  0
   25.2400   25.0100   33.7200 O   0  0  0  0  0  0  0  0  0  0  0  0
   27.0300   26.2200   34.8800 C   0  0  0  0  0  0  0  0  0  0  0  0
   27.3500   26.7300   36.0700 N   0  0  0  0  0  0  0  0  0  0  0  0
   28.5700   27.1800   36.3300 N   0  0  0  0  0  0  0  0  0  0  0  0
   29.5300   27.1100   35.3900 C   0  0  0  0  0  0  0  0  0  0  0  0
   30.8300   27.5700   35.6500 C   0  0  0  0  0  0  0  0  0  0  0  0
   31.8500   27.5400   34.6900 C   0  0  0  0  0  0  0  0  0  0  0  0
   31.5100   27.1200   33.4000 C   0  0  0  0  0  0  0  0  0  0  0  0
   30.2200   26.6300   33.1100 C   0  0  0  0  0  0  0  0  0  0  0  0
   29.2400   26.6600   34.1000 C   0  0  0  0  0  0  0  0  0  0  0  0
   27.9300   26.2600   33.8100 C   0  0  0  0  0  0  0  0  0  0  0  0
   27.5200   25.7100   32.6100 N   0  0  0  0  0  0  0  0  0  0  0  0
   31.1486   28.0392   36.9697 N   0  0  0  0  0  0  0  0  0  0  0  0
   31.3243   27.1178   38.0918 C   0  0  0  0  0  0  0  0  0  0  0  0
   32.2530   27.8336   39.0953 C   0  0  0  0  0  0  0  0  0  0  0  0
   32.4777   29.1751   38.4789 C   0  0  0  0  0  0  0  0  0  0  0  0
   33.1401   30.3007   39.0054 C   0  0  0  0  0  0  0  0  0  0  0  0
   33.8150   30.2838   40.2805 N   0  0  0  0  0  0  0  0  0  0  0  0
   34.6198   29.1346   40.7036 C   0  0  0  0  0  0  0  0  0  0  0  0
   33.7997   31.4964   41.1024 C   0  0  0  0  0  0  0  0  0  0  0  0
   33.0970   31.4620   38.2881 N   0  0  0  0  0  0  0  0  0  0  0  0
   32.4442   31.5646   37.0954 C   0  0  0  0  0  0  0  0  0  0  0  0
   31.7720   30.4595   36.5582 C   0  0  0  0  0  0  0  0  0  0  0  0
   31.8253   29.2535   37.2742 C   0  0  0  0  0  0  0  0  0  0  0  0
   30.8291   30.6616   35.0884 Cl  0  0  0  0  0  0  0  0  0  0  0  0
   23.6981   25.8078   35.4227 H   0  0  0  0  0  0  0  0  0  0  0  0
   24.8908   26.7905   36.3050 H   0  0  0  0  0  0  0  0  0  0  0  0
   32.8530   27.8790   34.9167 H   0  0  0  0  0  0  0  0  0  0  0  0
   32.2644   27.1248   32.6240 H   0  0  0  0  0  0  0  0  0  0  0  0
   30.0102   26.3031   32.1004 H   0  0  0  0  0  0  0  0  0  0  0  0
   26.6941   26.1028   32.1054 H   0  0  0  0  0  0  0  0  0  0  0  0
   28.1316   25.0435   32.0893 H   0  0  0  0  0  0  0  0  0  0  0  0
   31.7897   26.1691   37.7443 H   0  0  0  0  0  0  0  0  0  0  0  0
   30.3389   26.9003   38.5567 H   0  0  0  0  0  0  0  0  0  0  0  0
   31.7614   27.9368   40.0864 H   0  0  0  0  0  0  0  0  0  0  0  0
   33.2108   27.2795   39.1826 H   0  0  0  0  0  0  0  0  0  0  0  0
   35.4143   29.4456   41.4147 H   0  0  0  0  0  0  0  0  0  0  0  0
   35.1230   28.6746   39.8267 H   0  0  0  0  0  0  0  0  0  0  0  0
   33.9754   28.3879   41.2106 H   0  0  0  0  0  0  0  0  0  0  0  0
   34.3503   32.3103   40.5853 H   0  0  0  0  0  0  0  0  0  0  0  0
   34.2723   31.3216   42.0923 H   0  0  0  0  0  0  0  0  0  0  0  0
   32.7504   31.8163   41.2762 H   0  0  0  0  0  0  0  0  0  0  0  0
   32.4270   32.5153   36.5789 H   0  0  0  0  0  0  0  0  0  0  0  0
  1  2  1  0
  2  3  2  0
  2  4  1  0
  4  5  2  0
  5  6  1  0
  6  7  2  0
  7  8  1  0
  8  9  2  0
  9 10  1  0
 10 11  2  0
 11 12  1  0
 12 13  2  0
 13 14  1  0
  8 15  1  0
 15 16  1  0
 16 17  1  0
 17 18  1  0
 18 19  2  0
 19 20  1  0
 20 21  1  0
 20 22  1  0
 19 23  1  0
 23 24  2  0
 24 25  1  0
 25 26  2  0
 25 27  1  0
 13  4  1  0
 26 15  1  0
 12  7  1  0
 26 18  1  0
  1 28  1  0
  1 29  1  0
  9 30  1  0
 10 31  1  0
 11 32  1  0
 14 33  1  0
 14 34  1  0
 16 35  1  0
 16 36  1  0
 17 37  1  0
 17 38  1  0
 21 39  1  0
 21 40  1  0
 21 41  1  0
 22 42  1  0
 22 43  1  0
 22 44  1  0
 24 45  1  0
M  END
$$$$
confid_4
     RDKit          3D

 45 48  0  0  0  0  0  0  0  0999 V2000
   24.6900   26.1200   35.5300 N   0  0  0  0  0  0  0  0  0  0  0  0
   25.6600   25.6700   34.6600 C   0  0  0  0  0  0  0  0  0  0  0  0
   25.2400   25.0100   33.7200 O   0  0  0  0  0  0  0  0  0  0  0  0
   27.0300   26.2200   34.8800 C   0  0  0  0  0  0  0  0  0  0  0  0
   27.3500   26.7300   36.0700 N   0  0  0  0  0  0  0  0  0  0  0  0
   28.5700   27.1800   36.3300 N   0  0  0  0  0  0  0  0  0  0  0  0
   29.5300   27.1100   35.3900 C   0  0  0  0  0  0  0  0  0  0  0  0
   30.8300   27.5700   35.6500 C   0  0  0  0  0  0  0  0  0  0  0  0
   31.8500   27.5400   34.6900 C   0  0  0  0  0  0  0  0  0  0  0  0
   31.5100   27.1200   33.4000 C   0  0  0  0  0  0  0  0  0  0  0  0
   30.2200   26.6300   33.1100 C   0  0  0  0  0  0  0  0  0  0  0  0
   29.2400   26.6600   34.1000 C   0  0  0  0  0  0  0  0  0  0  0  0
   27.9300   26.2600   33.8100 C   0  0  0  0  0  0  0  0  0  0  0  0
   27.5200   25.7100   32.6100 N   0  0  0  0  0  0  0  0  0  0  0  0
   31.1615   28.0579   36.9582 N   0  0  0  0  0  0  0  0  0  0  0  0
   31.8955   27.2477   37.9268 C   0  0  0  0  0  0  0  0  0  0  0  0
   31.6034   27.8679   39.3097 C   0  0  0  0  0  0  0  0  0  0  0  0
   30.7507   29.0549   38.9972 C   0  0  0  0  0  0  0  0  0  0  0  0
   30.2778   30.0662   39.8554 C   0  0  0  0  0  0  0  0  0  0  0  0
   30.5114   30.0542   41.2791 N   0  0  0  0  0  0  0  0  0  0  0  0
   30.7187   31.3293   41.9700 C   0  0  0  0  0  0  0  0  0  0  0  0
   30.4111   28.8179   42.0592 C   0  0  0  0  0  0  0  0  0  0  0  0
   29.6083   31.1175   39.2975 N   0  0  0  0  0  0  0  0  0  0  0  0
   29.3831   31.2166   37.9564 C   0  0  0  0  0  0  0  0  0  0  0  0
   29.8519   30.2265   37.0836 C   0  0  0  0  0  0  0  0  0  0  0  0
   30.5290   29.1319   37.6448 C   0  0  0  0  0  0  0  0  0  0  0  0
   29.6423   30.4452   35.3521 Cl  0  0  0  0  0  0  0  0  0  0  0  0
   24.8908   26.7907   36.3048 H   0  0  0  0  0  0  0  0  0  0  0  0
   23.6982   25.8077   35.4229 H   0  0  0  0  0  0  0  0  0  0  0  0
   32.8505   27.8863   34.9168 H   0  0  0  0  0  0  0  0  0  0  0  0
   32.2654   27.1209   32.6249 H   0  0  0  0  0  0  0  0  0  0  0  0
   30.0114   26.2786   32.1078 H   0  0  0  0  0  0  0  0  0  0  0  0
   27.6977   26.2230   31.7183 H   0  0  0  0  0  0  0  0  0  0  0  0
   27.3415   24.6831   32.5416 H   0  0  0  0  0  0  0  0  0  0  0  0
   32.9826   27.2855   37.6995 H   0  0  0  0  0  0  0  0  0  0  0  0
   31.5421   26.1937   37.8926 H   0  0  0  0  0  0  0  0  0  0  0  0
   32.5442   28.1842   39.8091 H   0  0  0  0  0  0  0  0  0  0  0  0
   31.0457   27.1412   39.9367 H   0  0  0  0  0  0  0  0  0  0  0  0
   30.9782   31.1741   43.0388 H   0  0  0  0  0  0  0  0  0  0  0  0
   29.7953   31.9435   41.9147 H   0  0  0  0  0  0  0  0  0  0  0  0
   31.5554   31.8812   41.4917 H   0  0  0  0  0  0  0  0  0  0  0  0
   31.3847   28.2871   42.0532 H   0  0  0  0  0  0  0  0  0  0  0  0
   29.6153   28.1646   41.6427 H   0  0  0  0  0  0  0  0  0  0  0  0
   30.1416   29.0345   43.1148 H   0  0  0  0  0  0  0  0  0  0  0  0
   28.8589   32.0798   37.5680 H   0  0  0  0  0  0  0  0  0  0  0  0
  1  2  1  0
  2  3  2  0
  2  4  1  0
  4  5  2  0
  5  6  1  0
  6  7  2  0
  7  8  1  0
  8  9  2  0
  9 10  1  0
 10 11  2  0
 11 12  1  0
 12 13  2  0
 13 14  1  0
  8 15  1  0
 15 16  1  0
 16 17  1  0
 17 18  1  0
 18 19  2  0
 19 20  1  0
 20 21  1  0
 20 22  1  0
 19 23  1  0
 23 24  2  0
 24 25  1  0
 25 26  2  0
 25 27  1  0
 13  4  1  0
 26 15  1  0
 12  7  1  0
 26 18  1  0
  1 28  1  0
  1 29  1  0
  9 30  1  0
 10 31  1  0
 11 32  1  0
 14 33  1  0
 14 34  1  0
 16 35  1  0
 16 36  1  0
 17 37  1  0
 17 38  1  0
 21 39  1  0
 21 40  1  0
 21 41  1  0
 22 42  1  0
 22 43  1  0
 22 44  1  0
 24 45  1  0
M  END
$$$$
confid_5
     RDKit          3D

 45 48  0  0  0  0  0  0  0  0999 V2000
   24.6900   26.1200   35.5300 N   0  0  0  0  0  0  0  0  0  0  0  0
   25.6600   25.6700   34.6600 C   0  0  0  0  0  0  0  0  0  0  0  0
   25.2400   25.0100   33.7200 O   0  0  0  0  0  0  0  0  0  0  0  0
   27.0300   26.2200   34.8800 C   0  0  0  0  0  0  0  0  0  0  0  0
   27.3500   26.7300   36.0700 N   0  0  0  0  0  0  0  0  0  0  0  0
   28.5700   27.1800   36.3300 N   0  0  0  0  0  0  0  0  0  0  0  0
   29.5300   27.1100   35.3900 C   0  0  0  0  0  0  0  0  0  0  0  0
   30.8300   27.5700   35.6500 C   0  0  0  0  0  0  0  0  0  0  0  0
   31.8500   27.5400   34.6900 C   0  0  0  0  0  0  0  0  0  0  0  0
   31.5100   27.1200   33.4000 C   0  0  0  0  0  0  0  0  0  0  0  0
   30.2200   26.6300   33.1100 C   0  0  0  0  0  0  0  0  0  0  0  0
   29.2400   26.6600   34.1000 C   0  0  0  0  0  0  0  0  0  0  0  0
   27.9300   26.2600   33.8100 C   0  0  0  0  0  0  0  0  0  0  0  0
   27.5200   25.7100   32.6100 N   0  0  0  0  0  0  0  0  0  0  0  0
   31.1599   28.0571   36.9580 N   0  0  0  0  0  0  0  0  0  0  0  0
   31.7444   27.1869   37.9755 C   0  0  0  0  0  0  0  0  0  0  0  0
   31.5166   27.8945   39.3278 C   0  0  0  0  0  0  0  0  0  0  0  0
   30.7588   29.1287   38.9622 C   0  0  0  0  0  0  0  0  0  0  0  0
   30.1982   30.1147   39.7968 C   0  0  0  0  0  0  0  0  0  0  0  0
   30.3014   30.0714   41.2350 N   0  0  0  0  0  0  0  0  0  0  0  0
   31.5523   29.6972   41.9002 C   0  0  0  0  0  0  0  0  0  0  0  0
   29.1716   30.5486   42.0362 C   0  0  0  0  0  0  0  0  0  0  0  0
   29.4988   31.1292   39.2083 N   0  0  0  0  0  0  0  0  0  0  0  0
   29.3451   31.2278   37.8570 C   0  0  0  0  0  0  0  0  0  0  0  0
   29.8912   30.2566   37.0083 C   0  0  0  0  0  0  0  0  0  0  0  0
   30.5804   29.1866   37.6025 C   0  0  0  0  0  0  0  0  0  0  0  0
   29.7246   30.4515   35.2692 Cl  0  0  0  0  0  0  0  0  0  0  0  0
   23.6981   25.8077   35.4228 H   0  0  0  0  0  0  0  0  0  0  0  0
   24.8908   26.7908   36.3048 H   0  0  0  0  0  0  0  0  0  0  0  0
   32.8502   27.8871   34.9171 H   0  0  0  0  0  0  0  0  0  0  0  0
   32.2640   27.1263   32.6235 H   0  0  0  0  0  0  0  0  0  0  0  0
   30.0100   26.3035   32.1004 H   0  0  0  0  0  0  0  0  0  0  0  0
   28.1317   25.0436   32.0892 H   0  0  0  0  0  0  0  0  0  0  0  0
   26.6941   26.1029   32.1054 H   0  0  0  0  0  0  0  0  0  0  0  0
   32.8289   27.0488   37.7757 H   0  0  0  0  0  0  0  0  0  0  0  0
   31.2348   26.1983   37.9709 H   0  0  0  0  0  0  0  0  0  0  0  0
   30.9160   27.2579   40.0125 H   0  0  0  0  0  0  0  0  0  0  0  0
   32.4942   28.1564   39.7834 H   0  0  0  0  0  0  0  0  0  0  0  0
   31.6057   28.5955   42.0139 H   0  0  0  0  0  0  0  0  0  0  0  0
   31.6171   30.1523   42.9113 H   0  0  0  0  0  0  0  0  0  0  0  0
   32.4223   30.0653   41.3160 H   0  0  0  0  0  0  0  0  0  0  0  0
   29.3409   30.3750   43.1202 H   0  0  0  0  0  0  0  0  0  0  0  0
   29.0233   31.6365   41.8700 H   0  0  0  0  0  0  0  0  0  0  0  0
   28.2494   30.0039   41.7427 H   0  0  0  0  0  0  0  0  0  0  0  0
   28.7979   32.0649   37.4442 H   0  0  0  0  0  0  0  0  0  0  0  0
  1  2  1  0
  2  3  2  0
  2  4  1  0
  4  5  2  0
  5  6  1  0
  6  7  2  0
  7  8  1  0
  8  9  2  0
  9 10  1  0
 10 11  2  0
 11 12  1  0
 12 13  2  0
 13 14  1  0
  8 15  1  0
 15 16  1  0
 16 17  1  0
 17 18  1  0
 18 19  2  0
 19 20  1  0
 20 21  1  0
 20 22  1  0
 19 23  1  0
 23 24  2  0
 24 25  1  0
 25 26  2  0
 25 27  1  0
 13  4  1  0
 26 15  1  0
 12  7  1  0
 26 18  1  0
  1 28  1  0
  1 29  1  0
  9 30  1  0
 10 31  1  0
 11 32  1  0
 14 33  1  0
 14 34  1  0
 16 35  1  0
 16 36  1  0
 17 37  1  0
 17 38  1  0
 21 39  1  0
 21 40  1  0
 21 41  1  0
 22 42  1  0
 22 43  1  0
 22 44  1  0
 24 45  1  0
M  END
$$$$
confid_6
     RDKit          3D

 45 48  0  0  0  0  0  0  0  0999 V2000
   24.6900   26.1200   35.5300 N   0  0  0  0  0  0  0  0  0  0  0  0
   25.6600   25.6700   34.6600 C   0  0  0  0  0  0  0  0  0  0  0  0
   25.2400   25.0100   33.7200 O   0  0  0  0  0  0  0  0  0  0  0  0
   27.0300   26.2200   34.8800 C   0  0  0  0  0  0  0  0  0  0  0  0
   27.3500   26.7300   36.0700 N   0  0  0  0  0  0  0  0  0  0  0  0
   28.5700   27.1800   36.3300 N   0  0  0  0  0  0  0  0  0  0  0  0
   29.5300   27.1100   35.3900 C   0  0  0  0  0  0  0  0  0  0  0  0
   30.8300   27.5700   35.6500 C   0  0  0  0  0  0  0  0  0  0  0  0
   31.8500   27.5400   34.6900 C   0  0  0  0  0  0  0  0  0  0  0  0
   31.5100   27.1200   33.4000 C   0  0  0  0  0  0  0  0  0  0  0  0
   30.2200   26.6300   33.1100 C   0  0  0  0  0  0  0  0  0  0  0  0
   29.2400   26.6600   34.1000 C   0  0  0  0  0  0  0  0  0  0  0  0
   27.9300   26.2600   33.8100 C   0  0  0  0  0  0  0  0  0  0  0  0
   27.5200   25.7100   32.6100 N   0  0  0  0  0  0  0  0  0  0  0  0
   31.1487   28.0388   36.9698 N   0  0  0  0  0  0  0  0  0  0  0  0
   31.3241   27.1172   38.0917 C   0  0  0  0  0  0  0  0  0  0  0  0
   32.2531   27.8326   39.0953 C   0  0  0  0  0  0  0  0  0  0  0  0
   32.4782   29.1741   38.4792 C   0  0  0  0  0  0  0  0  0  0  0  0
   33.1410   30.2994   39.0059 C   0  0  0  0  0  0  0  0  0  0  0  0
   33.8159   30.2820   40.2810 N   0  0  0  0  0  0  0  0  0  0  0  0
   33.8009   31.4945   41.1031 C   0  0  0  0  0  0  0  0  0  0  0  0
   34.6203   29.1325   40.7038 C   0  0  0  0  0  0  0  0  0  0  0  0
   33.0982   31.4608   38.2888 N   0  0  0  0  0  0  0  0  0  0  0  0
   32.4453   31.5639   37.0961 C   0  0  0  0  0  0  0  0  0  0  0  0
   31.7728   30.4591   36.5587 C   0  0  0  0  0  0  0  0  0  0  0  0
   31.8257   29.2529   37.2745 C   0  0  0  0  0  0  0  0  0  0  0  0
   30.8299   30.6617   35.0890 Cl  0  0  0  0  0  0  0  0  0  0  0  0
   23.6981   25.8077   35.4228 H   0  0  0  0  0  0  0  0  0  0  0  0
   24.8908   26.7905   36.3050 H   0  0  0  0  0  0  0  0  0  0  0  0
   32.8534   27.8778   34.9170 H   0  0  0  0  0  0  0  0  0  0  0  0
   32.2659   27.1193   32.6255 H   0  0  0  0  0  0  0  0  0  0  0  0
   30.0115   26.2782   32.1079 H   0  0  0  0  0  0  0  0  0  0  0  0
   27.6978   26.2229   31.7183 H   0  0  0  0  0  0  0  0  0  0  0  0
   27.3415   24.6832   32.5416 H   0  0  0  0  0  0  0  0  0  0  0  0
   31.7893   26.1685   37.7440 H   0  0  0  0  0  0  0  0  0  0  0  0
   30.3386   26.9000   38.5566 H   0  0  0  0  0  0  0  0  0  0  0  0
   33.2108   27.2781   39.1825 H   0  0  0  0  0  0  0  0  0  0  0  0
   31.7616   27.9357   40.0865 H   0  0  0  0  0  0  0  0  0  0  0  0
   32.7518   31.8147   41.2770 H   0  0  0  0  0  0  0  0  0  0  0  0
   34.2735   31.3193   42.0930 H   0  0  0  0  0  0  0  0  0  0  0  0
   34.3517   32.3083   40.5861 H   0  0  0  0  0  0  0  0  0  0  0  0
   35.4150   29.4432   41.4149 H   0  0  0  0  0  0  0  0  0  0  0  0
   35.1233   28.6725   39.8268 H   0  0  0  0  0  0  0  0  0  0  0  0
   33.9757   28.3860   41.2107 H   0  0  0  0  0  0  0  0  0  0  0  0
   32.4284   32.5146   36.5799 H   0  0  0  0  0  0  0  0  0  0  0  0
  1  2  1  0
  2  3  2  0
  2  4  1  0
  4  5  2  0
  5  6  1  0
  6  7  2  0
  7  8  1  0
  8  9  2  0
  9 10  1  0
 10 11  2  0
 11 12  1  0
 12 13  2  0
 13 14  1  0
  8 15  1  0
 15 16  1  0
 16 17  1  0
 17 18  1  0
 18 19  2  0
 19 20  1  0
 20 21  1  0
 20 22  1  0
 19 23  1  0
 23 24  2  0
 24 25  1  0
 25 26  2  0
 25 27  1  0
 13  4  1  0
 26 15  1  0
 12  7  1  0
 26 18  1  0
  1 28  1  0
  1 29  1  0
  9 30  1  0
 10 31  1  0
 11 32  1  0
 14 33  1  0
 14 34  1  0
 16 35  1  0
 16 36  1  0
 17 37  1  0
 17 38  1  0
 21 39  1  0
 21 40  1  0
 21 41  1  0
 22 42  1  0
 22 43  1  0
 22 44  1  0
 24 45  1  0
M  END
$$$$
confid_7
     RDKit          3D

 45 48  0  0  0  0  0  0  0  0999 V2000
   24.6900   26.1200   35.5300 N   0  0  0  0  0  0  0  0  0  0  0  0
   25.6600   25.6700   34.6600 C   0  0  0  0  0  0  0  0  0  0  0  0
   25.2400   25.0100   33.7200 O   0  0  0  0  0  0  0  0  0  0  0  0
   27.0300   26.2200   34.8800 C   0  0  0  0  0  0  0  0  0  0  0  0
   27.3500   26.7300   36.0700 N   0  0  0  0  0  0  0  0  0  0  0  0
   28.5700   27.1800   36.3300 N   0  0  0  0  0  0  0  0  0  0  0  0
   29.5300   27.1100   35.3900 C   0  0  0  0  0  0  0  0  0  0  0  0
   30.8300   27.5700   35.6500 C   0  0  0  0  0  0  0  0  0  0  0  0
   31.8500   27.5400   34.6900 C   0  0  0  0  0  0  0  0  0  0  0  0
   31.5100   27.1200   33.4000 C   0  0  0  0  0  0  0  0  0  0  0  0
   30.2200   26.6300   33.1100 C   0  0  0  0  0  0  0  0  0  0  0  0
   29.2400   26.6600   34.1000 C   0  0  0  0  0  0  0  0  0  0  0  0
   27.9300   26.2600   33.8100 C   0  0  0  0  0  0  0  0  0  0  0  0
   27.5200   25.7100   32.6100 N   0  0  0  0  0  0  0  0  0  0  0  0
   31.1615   28.0579   36.9582 N   0  0  0  0  0  0  0  0  0  0  0  0
   31.8955   27.2477   37.9268 C   0  0  0  0  0  0  0  0  0  0  0  0
   31.6034   27.8679   39.3097 C   0  0  0  0  0  0  0  0  0  0  0  0
   30.7507   29.0549   38.9972 C   0  0  0  0  0  0  0  0  0  0  0  0
   30.2778   30.0662   39.8554 C   0  0  0  0  0  0  0  0  0  0  0  0
   30.5113   30.0542   41.2791 N   0  0  0  0  0  0  0  0  0  0  0  0
   30.4111   28.8179   42.0592 C   0  0  0  0  0  0  0  0  0  0  0  0
   30.7187   31.3293   41.9700 C   0  0  0  0  0  0  0  0  0  0  0  0
   29.6082   31.1174   39.2975 N   0  0  0  0  0  0  0  0  0  0  0  0
   29.3831   31.2166   37.9564 C   0  0  0  0  0  0  0  0  0  0  0  0
   29.8519   30.2265   37.0836 C   0  0  0  0  0  0  0  0  0  0  0  0
   30.5290   29.1319   37.6448 C   0  0  0  0  0  0  0  0  0  0  0  0
   29.6423   30.4452   35.3521 Cl  0  0  0  0  0  0  0  0  0  0  0  0
   24.8908   26.7907   36.3048 H   0  0  0  0  0  0  0  0  0  0  0  0
   23.6982   25.8077   35.4229 H   0  0  0  0  0  0  0  0  0  0  0  0
   32.8505   27.8863   34.9168 H   0  0  0  0  0  0  0  0  0  0  0  0
   32.2654   27.1209   32.6249 H   0  0  0  0  0  0  0  0  0  0  0  0
   30.0114   26.2786   32.1078 H   0  0  0  0  0  0  0  0  0  0  0  0
   27.6977   26.2230   31.7183 H   0  0  0  0  0  0  0  0  0  0  0  0
   27.3415   24.6831   32.5416 H   0  0  0  0  0  0  0  0  0  0  0  0
   32.9826   27.2855   37.6995 H   0  0  0  0  0  0  0  0  0  0  0  0
   31.5421   26.1937   37.8926 H   0  0  0  0  0  0  0  0  0  0  0  0
   32.5442   28.1842   39.8091 H   0  0  0  0  0  0  0  0  0  0  0  0
   31.0457   27.1412   39.9367 H   0  0  0  0  0  0  0  0  0  0  0  0
   30.1416   29.0345   43.1148 H   0  0  0  0  0  0  0  0  0  0  0  0
   31.3847   28.2871   42.0532 H   0  0  0  0  0  0  0  0  0  0  0  0
   29.6152   28.1645   41.6427 H   0  0  0  0  0  0  0  0  0  0  0  0
   30.9782   31.1740   43.0388 H   0  0  0  0  0  0  0  0  0  0  0  0
   31.5554   31.8812   41.4917 H   0  0  0  0  0  0  0  0  0  0  0  0
   29.7953   31.9435   41.9147 H   0  0  0  0  0  0  0  0  0  0  0  0
   28.8589   32.0798   37.5680 H   0  0  0  0  0  0  0  0  0  0  0  0
  1  2  1  0
  2  3  2  0
  2  4  1  0
  4  5  2  0
  5  6  1  0
  6  7  2  0
  7  8  1  0
  8  9  2  0
  9 10  1  0
 10 11  2  0
 11 12  1  0
 12 13  2  0
 13 14  1  0
  8 15  1  0
 15 16  1  0
 16 17  1  0
 17 18  1  0
 18 19  2  0
 19 20  1  0
 20 21  1  0
 20 22  1  0
 19 23  1  0
 23 24  2  0
 24 25  1  0
 25 26  2  0
 25 27  1  0
 13  4  1  0
 26 15  1  0
 12  7  1  0
 26 18  1  0
  1 28  1  0
  1 29  1  0
  9 30  1  0
 10 31  1  0
 11 32  1  0
 14 33  1  0
 14 34  1  0
 16 35  1  0
 16 36  1  0
 17 37  1  0
 17 38  1  0
 21 39  1  0
 21 40  1  0
 21 41  1  0
 22 42  1  0
 22 43  1  0
 22 44  1  0
 24 45  1  0
M  END
$$$$
confid_8
     RDKit          3D

 45 48  0  0  0  0  0  0  0  0999 V2000
   24.6900   26.1200   35.5300 N   0  0  0  0  0  0  0  0  0  0  0  0
   25.6600   25.6700   34.6600 C   0  0  0  0  0  0  0  0  0  0  0  0
   25.2400   25.0100   33.7200 O   0  0  0  0  0  0  0  0  0  0  0  0
   27.0300   26.2200   34.8800 C   0  0  0  0  0  0  0  0  0  0  0  0
   27.3500   26.7300   36.0700 N   0  0  0  0  0  0  0  0  0  0  0  0
   28.5700   27.1800   36.3300 N   0  0  0  0  0  0  0  0  0  0  0  0
   29.5300   27.1100   35.3900 C   0  0  0  0  0  0  0  0  0  0  0  0
   30.8300   27.5700   35.6500 C   0  0  0  0  0  0  0  0  0  0  0  0
   31.8500   27.5400   34.6900 C   0  0  0  0  0  0  0  0  0  0  0  0
   31.5100   27.1200   33.4000 C   0  0  0  0  0  0  0  0  0  0  0  0
   30.2200   26.6300   33.1100 C   0  0  0  0  0  0  0  0  0  0  0  0
   29.2400   26.6600   34.1000 C   0  0  0  0  0  0  0  0  0  0  0  0
   27.9300   26.2600   33.8100 C   0  0  0  0  0  0  0  0  0  0  0  0
   27.5200   25.7100   32.6100 N   0  0  0  0  0  0  0  0  0  0  0  0
   31.1344   28.0883   36.9544 N   0  0  0  0  0  0  0  0  0  0  0  0
   30.7139   29.4272   37.3653 C   0  0  0  0  0  0  0  0  0  0  0  0
   31.7119   29.8770   38.4533 C   0  0  0  0  0  0  0  0  0  0  0  0
   32.6047   28.6931   38.6298 C   0  0  0  0  0  0  0  0  0  0  0  0
   33.6230   28.4752   39.5778 C   0  0  0  0  0  0  0  0  0  0  0  0
   34.0279   29.4779   40.5330 N   0  0  0  0  0  0  0  0  0  0  0  0
   34.4469   29.0494   41.8698 C   0  0  0  0  0  0  0  0  0  0  0  0
   34.1553   30.8874   40.1533 C   0  0  0  0  0  0  0  0  0  0  0  0
   34.2134   27.2442   39.6110 N   0  0  0  0  0  0  0  0  0  0  0  0
   33.8551   26.2349   38.7672 C   0  0  0  0  0  0  0  0  0  0  0  0
   32.8390   26.4279   37.8227 C   0  0  0  0  0  0  0  0  0  0  0  0
   32.2370   27.6945   37.7633 C   0  0  0  0  0  0  0  0  0  0  0  0
   32.3111   25.0679   36.8421 Cl  0  0  0  0  0  0  0  0  0  0  0  0
   24.8908   26.7905   36.3050 H   0  0  0  0  0  0  0  0  0  0  0  0
   23.6981   25.8077   35.4228 H   0  0  0  0  0  0  0  0  0  0  0  0
   32.8490   27.8934   34.9126 H   0  0  0  0  0  0  0  0  0  0  0  0
   32.2651   27.1222   32.6247 H   0  0  0  0  0  0  0  0  0  0  0  0
   30.0114   26.2787   32.1078 H   0  0  0  0  0  0  0  0  0  0  0  0
   27.3416   24.6831   32.5416 H   0  0  0  0  0  0  0  0  0  0  0  0
   27.6978   26.2229   31.7183 H   0  0  0  0  0  0  0  0  0  0  0  0
   30.7460   30.1255   36.5000 H   0  0  0  0  0  0  0  0  0  0  0  0
   29.6812   29.3876   37.7733 H   0  0  0  0  0  0  0  0  0  0  0  0
   32.2918   30.7523   38.0929 H   0  0  0  0  0  0  0  0  0  0  0  0
   31.1842   30.1129   39.4023 H   0  0  0  0  0  0  0  0  0  0  0  0
   35.3737   28.4421   41.7987 H   0  0  0  0  0  0  0  0  0  0  0  0
   34.6427   29.9196   42.5319 H   0  0  0  0  0  0  0  0  0  0  0  0
   33.6437   28.4397   42.3352 H   0  0  0  0  0  0  0  0  0  0  0  0
   33.1779   31.3990   40.2653 H   0  0  0  0  0  0  0  0  0  0  0  0
   34.5147   30.9717   39.1056 H   0  0  0  0  0  0  0  0  0  0  0  0
   34.8943   31.4079   40.7987 H   0  0  0  0  0  0  0  0  0  0  0  0
   34.3445   25.2735   38.8505 H   0  0  0  0  0  0  0  0  0  0  0  0
  1  2  1  0
  2  3  2  0
  2  4  1  0
  4  5  2  0
  5  6  1  0
  6  7  2  0
  7  8  1  0
  8  9  2  0
  9 10  1  0
 10 11  2  0
 11 12  1  0
 12 13  2  0
 13 14  1  0
  8 15  1  0
 15 16  1  0
 16 17  1  0
 17 18  1  0
 18 19  2  0
 19 20  1  0
 20 21  1  0
 20 22  1  0
 19 23  1  0
 23 24  2  0
 24 25  1  0
 25 26  2  0
 25 27  1  0
 13  4  1  0
 26 15  1  0
 12  7  1  0
 26 18  1  0
  1 28  1  0
  1 29  1  0
  9 30  1  0
 10 31  1  0
 11 32  1  0
 14 33  1  0
 14 34  1  0
 16 35  1  0
 16 36  1  0
 17 37  1  0
 17 38  1  0
 21 39  1  0
 21 40  1  0
 21 41  1  0
 22 42  1  0
 22 43  1  0
 22 44  1  0
 24 45  1  0
M  END
$$$$
