confid_0
     RDKit          3D

 44 47  0  0  0  0  0  0  0  0999 V2000
   24.6900   26.1200   35.5300 N   0  0  0  0  0  0  0  0  0  0  0  0
   25.6600   25.6700   34.6600 C   0  0  0  0  0  0  0  0  0  0  0  0
   25.2400   25.0100   33.7200 O   0  0  0  0  0  0  0  0  0  0  0  0
   27.0300   26.2200   34.8800 C   0  0  0  0  0  0  0  0  0  0  0  0
   27.3500   26.7300   36.0700 N   0  0  0  0  0  0  0  0  0  0  0  0
   28.5700   27.1800   36.3300 N   0  0  0  0  0  0  0  0  0  0  0  0
   29.5300   27.1100   35.3900 C   0  0  0  0  0  0  0  0  0  0  0  0
   30.8300   27.5700   35.6500 C   0  0  0  0  0  0  0  0  0  0  0  0
   31.8500   27.5400   34.6900 C   0  0  0  0  0  0  0  0  0  0  0  0
   31.5100   27.1200   33.4000 C   0  0  0  0  0  0  0  0  0  0  0  0
   30.2200   26.6300   33.1100 C   0  0  0  0  0  0  0  0  0  0  0  0
   29.2400   26.6600   34.1000 C   0  0  0  0  0  0  0  0  0  0  0  0
   27.9300   26.2600   33.8100 C   0  0  0  0  0  0  0  0  0  0  0  0
   27.5200   25.7100   32.6100 N   0  0  0  0  0  0  0  0  0  0  0  0
   31.1465   28.0715   36.9619 N   0  0  0  0  0  0  0  0  0  0  0  0
   32.2319   27.4605   37.7340 C   0  0  0  0  0  0  0  0  0  0  0  0
   31.8993   27.4735   39.2284 C   0  0  0  0  0  0  0  0  0  0  0  0
   31.5155   28.8596   39.7032 C   0  0  0  0  0  0  0  0  0  0  0  0
   31.7532   29.2402   41.0407 C   0  0  0  0  0  0  0  0  0  0  0  0
   32.3954   28.3355   41.9034 O   0  0  0  0  0  0  0  0  0  0  0  0
   32.6925   28.5924   43.2722 C   0  0  0  0  0  0  0  0  0  0  0  0
   31.3394   30.5105   41.4810 C   0  0  0  0  0  0  0  0  0  0  0  0
   30.6799   31.3825   40.6142 C   0  0  0  0  0  0  0  0  0  0  0  0
   30.4175   31.0003   39.2959 C   0  0  0  0  0  0  0  0  0  0  0  0
   29.7720   31.8678   38.4743 F   0  0  0  0  0  0  0  0  0  0  0  0
   30.8263   29.7348   38.8320 C   0  0  0  0  0  0  0  0  0  0  0  0
   30.5599   29.2954   37.4406 C   0  0  0  0  0  0  0  0  0  0  0  0
   29.8263   29.9832   36.6785 O   0  0  0  0  0  0  0  0  0  0  0  0
   30.1744   32.9612   41.1949 Cl  0  0  0  0  0  0  0  0  0  0  0  0
   24.8908   26.7906   36.3050 H   0  0  0  0  0  0  0  0  0  0  0  0
   23.6981   25.8078   35.4227 H   0  0  0  0  0  0  0  0  0  0  0  0
   32.8494   27.8926   34.9117 H   0  0  0  0  0  0  0  0  0  0  0  0
   32.2636   27.1275   32.6231 H   0  0  0  0  0  0  0  0  0  0  0  0
   30.0100   26.3036   32.1003 H   0  0  0  0  0  0  0  0  0  0  0  0
   28.1317   25.0436   32.0892 H   0  0  0  0  0  0  0  0  0  0  0  0
   26.6941   26.1028   32.1054 H   0  0  0  0  0  0  0  0  0  0  0  0
   33.1724   28.0258   37.5550 H   0  0  0  0  0  0  0  0  0  0  0  0
   32.3903   26.4075   37.4120 H   0  0  0  0  0  0  0  0  0  0  0  0
   31.0502   26.7831   39.4218 H   0  0  0  0  0  0  0  0  0  0  0  0
   32.7867   27.0957   39.7802 H   0  0  0  0  0  0  0  0  0  0  0  0
   31.7553   28.7788   43.8380 H   0  0  0  0  0  0  0  0  0  0  0  0
   33.3728   29.4659   43.3579 H   0  0  0  0  0  0  0  0  0  0  0  0
   33.1980   27.7054   43.7055 H   0  0  0  0  0  0  0  0  0  0  0  0
   31.5190   30.8297   42.4985 H   0  0  0  0  0  0  0  0  0  0  0  0
  1  2  1  0
  2  3  2  0
  2  4  1  0
  4  5  2  0
  5  6  1  0
  6  7  2  0
  7  8  1  0
  8  9  2  0
  9 10  1  0
 10 11  2  0
 11 12  1  0
 12 13  2  0
 13 14  1  0
  8 15  1  0
 15 16  1  0
 16 17  1  0
 17 18  1  0
 18 19  2  0
 19 20  1  0
 20 21  1  0
 19 22  1  0
 22 23  2  0
 23 24  1  0
 24 25  1  0
 24 26  2  0
 26 27  1  0
 27 28  2  0
 23 29  1  0
 13  4  1  0
 27 15  1  0
 12  7  1  0
 26 18  1  0
  1 30  1  0
  1 31  1  0
  9 32  1  0
 10 33  1  0
 11 34  1  0
 14 35  1  0
 14 36  1  0
 16 37  1  0
 16 38  1  0
 17 39  1  0
 17 40  1  0
 21 41  1  0
 21 42  1  0
 21 43  1  0
 22 44  1  0
M  END
$$$$
confid_1
     RDKit          3D

 44 47  0  0  0  0  0  0  0  0999 V2000
   24.6900   26.1200   35.5300 N   0  0  0  0  0  0  0  0  0  0  0  0
   25.6600   25.6700   34.6600 C   0  0  0  0  0  0  0  0  0  0  0  0
   25.2400   25.0100   33.7200 O   0  0  0  0  0  0  0  0  0  0  0  0
   27.0300   26.2200   34.8800 C   0  0  0  0  0  0  0  0  0  0  0  0
   27.3500   26.7300   36.0700 N   0  0  0  0  0  0  0  0  0  0  0  0
   28.5700   27.1800   36.3300 N   0  0  0  0  0  0  0  0  0  0  0  0
   29.5300   27.1100   35.3900 C   0  0  0  0  0  0  0  0  0  0  0  0
   30.8300   27.5700   35.6500 C   0  0  0  0  0  0  0  0  0  0  0  0
   31.8500   27.5400   34.6900 C   0  0  0  0  0  0  0  0  0  0  0  0
   31.5100   27.1200   33.4000 C   0  0  0  0  0  0  0  0  0  0  0  0
   30.2200   26.6300   33.1100 C   0  0  0  0  0  0  0  0  0  0  0  0
   29.2400   26.6600   34.1000 C   0  0  0  0  0  0  0  0  0  0  0  0
   27.9300   26.2600   33.8100 C   0  0  0  0  0  0  0  0  0  0  0  0
   27.5200   25.7100   32.6100 N   0  0  0  0  0  0  0  0  0  0  0  0
   31.1551   28.0684   36.9577 N   0  0  0  0  0  0  0  0  0  0  0  0
   31.2222   29.5163   37.1718 C   0  0  0  0  0  0  0  0  0  0  0  0
   32.2415   29.8574   38.2628 C   0  0  0  0  0  0  0  0  0  0  0  0
   31.9911   29.0610   39.5261 C   0  0  0  0  0  0  0  0  0  0  0  0
   32.3280   29.6002   40.7854 C   0  0  0  0  0  0  0  0  0  0  0  0
   32.8449   30.9053   40.8529 O   0  0  0  0  0  0  0  0  0  0  0  0
   33.2255   31.5651   42.0560 C   0  0  0  0  0  0  0  0  0  0  0  0
   32.1440   28.8199   41.9416 C   0  0  0  0  0  0  0  0  0  0  0  0
   31.6540   27.5166   41.8484 C   0  0  0  0  0  0  0  0  0  0  0  0
   31.3444   26.9685   40.6007 C   0  0  0  0  0  0  0  0  0  0  0  0
   30.8666   25.6988   40.5371 F   0  0  0  0  0  0  0  0  0  0  0  0
   31.5167   27.7332   39.4311 C   0  0  0  0  0  0  0  0  0  0  0  0
   31.2011   27.1832   38.0915 C   0  0  0  0  0  0  0  0  0  0  0  0
   30.9973   25.9477   37.9366 O   0  0  0  0  0  0  0  0  0  0  0  0
   31.4359   26.5677   43.3102 Cl  0  0  0  0  0  0  0  0  0  0  0  0
   23.6981   25.8078   35.4227 H   0  0  0  0  0  0  0  0  0  0  0  0
   24.8908   26.7904   36.3051 H   0  0  0  0  0  0  0  0  0  0  0  0
   32.8502   27.8873   34.9169 H   0  0  0  0  0  0  0  0  0  0  0  0
   32.2640   27.1262   32.6236 H   0  0  0  0  0  0  0  0  0  0  0  0
   30.0101   26.3033   32.1004 H   0  0  0  0  0  0  0  0  0  0  0  0
   28.1316   25.0435   32.0893 H   0  0  0  0  0  0  0  0  0  0  0  0
   26.6941   26.1028   32.1054 H   0  0  0  0  0  0  0  0  0  0  0  0
   31.5158   30.0344   36.2323 H   0  0  0  0  0  0  0  0  0  0  0  0
   30.2174   29.8860   37.4714 H   0  0  0  0  0  0  0  0  0  0  0  0
   33.2647   29.6287   37.8942 H   0  0  0  0  0  0  0  0  0  0  0  0
   32.1801   30.9491   38.4601 H   0  0  0  0  0  0  0  0  0  0  0  0
   34.0381   31.0009   42.5605 H   0  0  0  0  0  0  0  0  0  0  0  0
   32.3495   31.6630   42.7315 H   0  0  0  0  0  0  0  0  0  0  0  0
   33.5985   32.5803   41.8097 H   0  0  0  0  0  0  0  0  0  0  0  0
   32.3847   29.2136   42.9196 H   0  0  0  0  0  0  0  0  0  0  0  0
  1  2  1  0
  2  3  2  0
  2  4  1  0
  4  5  2  0
  5  6  1  0
  6  7  2  0
  7  8  1  0
  8  9  2  0
  9 10  1  0
 10 11  2  0
 11 12  1  0
 12 13  2  0
 13 14  1  0
  8 15  1  0
 15 16  1  0
 16 17  1  0
 17 18  1  0
 18 19  2  0
 19 20  1  0
 20 21  1  0
 19 22  1  0
 22 23  2  0
 23 24  1  0
 24 25  1  0
 24 26  2  0
 26 27  1  0
 27 28  2  0
 23 29  1  0
 13  4  1  0
 27 15  1  0
 12  7  1  0
 26 18  1  0
  1 30  1  0
  1 31  1  0
  9 32  1  0
 10 33  1  0
 11 34  1  0
 14 35  1  0
 14 36  1  0
 16 37  1  0
 16 38  1  0
 17 39  1  0
 17 40  1  0
 21 41  1  0
 21 42  1  0
 21 43  1  0
 22 44  1  0
M  END
$$$$
confid_2
     RDKit          3D

 44 47  0  0  0  0  0  0  0  0999 V2000
   24.6900   26.1200   35.5300 N   0  0  0  0  0  0  0  0  0  0  0  0
   25.6600   25.6700   34.6600 C   0  0  0  0  0  0  0  0  0  0  0  0
   25.2400   25.0100   33.7200 O   0  0  0  0  0  0  0  0  0  0  0  0
   27.0300   26.2200   34.8800 C   0  0  0  0  0  0  0  0  0  0  0  0
   27.3500   26.7300   36.0700 N   0  0  0  0  0  0  0  0  0  0  0  0
   28.5700   27.1800   36.3300 N   0  0  0  0  0  0  0  0  0  0  0  0
   29.5300   27.1100   35.3900 C   0  0  0  0  0  0  0  0  0  0  0  0
   30.8300   27.5700   35.6500 C   0  0  0  0  0  0  0  0  0  0  0  0
   31.8500   27.5400   34.6900 C   0  0  0  0  0  0  0  0  0  0  0  0
   31.5100   27.1200   33.4000 C   0  0  0  0  0  0  0  0  0  0  0  0
   30.2200   26.6300   33.1100 C   0  0  0  0  0  0  0  0  0  0  0  0
   29.2400   26.6600   34.1000 C   0  0  0  0  0  0  0  0  0  0  0  0
   27.9300   26.2600   33.8100 C   0  0  0  0  0  0  0  0  0  0  0  0
   27.5200   25.7100   32.6100 N   0  0  0  0  0  0  0  0  0  0  0  0
   31.1639   28.0555   36.9642 N   0  0  0  0  0  0  0  0  0  0  0  0
   31.0178   27.1854   38.1356 C   0  0  0  0  0  0  0  0  0  0  0  0
   32.1876   27.3874   39.1025 C   0  0  0  0  0  0  0  0  0  0  0  0
   32.3745   28.8498   39.4498 C   0  0  0  0  0  0  0  0  0  0  0  0
   32.9104   29.2186   40.7016 C   0  0  0  0  0  0  0  0  0  0  0  0
   33.2170   28.2138   41.6352 O   0  0  0  0  0  0  0  0  0  0  0  0
   33.7625   28.4490   42.9293 C   0  0  0  0  0  0  0  0  0  0  0  0
   33.1294   30.5790   40.9849 C   0  0  0  0  0  0  0  0  0  0  0  0
   32.8417   31.5580   40.0332 C   0  0  0  0  0  0  0  0  0  0  0  0
   32.3363   31.1962   38.7814 C   0  0  0  0  0  0  0  0  0  0  0  0
   32.0657   32.1688   37.8730 F   0  0  0  0  0  0  0  0  0  0  0  0
   32.1052   29.8406   38.4776 C   0  0  0  0  0  0  0  0  0  0  0  0
   31.5755   29.4205   37.1577 C   0  0  0  0  0  0  0  0  0  0  0  0
   31.4889   30.2457   36.2072 O   0  0  0  0  0  0  0  0  0  0  0  0
   33.1275   33.2479   40.4170 Cl  0  0  0  0  0  0  0  0  0  0  0  0
   23.6981   25.8078   35.4227 H   0  0  0  0  0  0  0  0  0  0  0  0
   24.8908   26.7904   36.3051 H   0  0  0  0  0  0  0  0  0  0  0  0
   32.8528   27.8798   34.9171 H   0  0  0  0  0  0  0  0  0  0  0  0
   32.2659   27.1193   32.6254 H   0  0  0  0  0  0  0  0  0  0  0  0
   30.0115   26.2781   32.1079 H   0  0  0  0  0  0  0  0  0  0  0  0
   27.6978   26.2229   31.7183 H   0  0  0  0  0  0  0  0  0  0  0  0
   27.3415   24.6832   32.5416 H   0  0  0  0  0  0  0  0  0  0  0  0
   30.0644   27.4256   38.6544 H   0  0  0  0  0  0  0  0  0  0  0  0
   30.9881   26.1176   37.8255 H   0  0  0  0  0  0  0  0  0  0  0  0
   31.9876   26.7838   40.0136 H   0  0  0  0  0  0  0  0  0  0  0  0
   33.1218   27.0097   38.6338 H   0  0  0  0  0  0  0  0  0  0  0  0
   33.9026   27.4771   43.4452 H   0  0  0  0  0  0  0  0  0  0  0  0
   33.0667   29.0724   43.5296 H   0  0  0  0  0  0  0  0  0  0  0  0
   34.7495   28.9505   42.8425 H   0  0  0  0  0  0  0  0  0  0  0  0
   33.5295   30.8883   41.9408 H   0  0  0  0  0  0  0  0  0  0  0  0
  1  2  1  0
  2  3  2  0
  2  4  1  0
  4  5  2  0
  5  6  1  0
  6  7  2  0
  7  8  1  0
  8  9  2  0
  9 10  1  0
 10 11  2  0
 11 12  1  0
 12 13  2  0
 13 14  1  0
  8 15  1  0
 15 16  1  0
 16 17  1  0
 17 18  1  0
 18 19  2  0
 19 20  1  0
 20 21  1  0
 19 22  1  0
 22 23  2  0
 23 24  1  0
 24 25  1  0
 24 26  2  0
 26 27  1  0
 27 28  2  0
 23 29  1  0
 13  4  1  0
 27 15  1  0
 12  7  1  0
 26 18  1  0
  1 30  1  0
  1 31  1  0
  9 32  1  0
 10 33  1  0
 11 34  1  0
 14 35  1  0
 14 36  1  0
 16 37  1  0
 16 38  1  0
 17 39  1  0
 17 40  1  0
 21 41  1  0
 21 42  1  0
 21 43  1  0
 22 44  1  0
M  END
$$$$
confid_3
     RDKit          3D

 44 47  0  0  0  0  0  0  0  0999 V2000
   24.6900   26.1200   35.5300 N   0  0  0  0  0  0  0  0  0  0  0  0
   25.6600   25.6700   34.6600 C   0  0  0  0  0  0  0  0  0  0  0  0
   25.2400   25.0100   33.7200 O   0  0  0  0  0  0  0  0  0  0  0  0
   27.0300   26.2200   34.8800 C   0  0  0  0  0  0  0  0  0  0  0  0
   27.3500   26.7300   36.0700 N   0  0  0  0  0  0  0  0  0  0  0  0
   28.5700   27.1800   36.3300 N   0  0  0  0  0  0  0  0  0  0  0  0
   29.5300   27.1100   35.3900 C   0  0  0  0  0  0  0  0  0  0  0  0
   30.8300   27.5700   35.6500 C   0  0  0  0  0  0  0  0  0  0  0  0
   31.8500   27.5400   34.6900 C   0  0  0  0  0  0  0  0  0  0  0  0
   31.5100   27.1200   33.4000 C   0  0  0  0  0  0  0  0  0  0  0  0
   30.2200   26.6300   33.1100 C   0  0  0  0  0  0  0  0  0  0  0  0
   29.2400   26.6600   34.1000 C   0  0  0  0  0  0  0  0  0  0  0  0
   27.9300   26.2600   33.8100 C   0  0  0  0  0  0  0  0  0  0  0  0
   27.5200   25.7100   32.6100 N   0  0  0  0  0  0  0  0  0  0  0  0
   31.1408   28.0768   36.9583 N   0  0  0  0  0  0  0  0  0  0  0  0
   30.7197   29.4332   37.3188 C   0  0  0  0  0  0  0  0  0  0  0  0
   30.4272   29.5266   38.8188 C   0  0  0  0  0  0  0  0  0  0  0  0
   31.5859   29.0070   39.6440 C   0  0  0  0  0  0  0  0  0  0  0  0
   31.8310   29.5289   40.9315 C   0  0  0  0  0  0  0  0  0  0  0  0
   31.0194   30.5711   41.4112 O   0  0  0  0  0  0  0  0  0  0  0  0
   31.1580   31.1840   42.6890 C   0  0  0  0  0  0  0  0  0  0  0  0
   32.8761   28.9929   41.7060 C   0  0  0  0  0  0  0  0  0  0  0  0
   33.6528   27.9405   41.2198 C   0  0  0  0  0  0  0  0  0  0  0  0
   33.3965   27.4016   39.9560 C   0  0  0  0  0  0  0  0  0  0  0  0
   34.1676   26.3783   39.5059 F   0  0  0  0  0  0  0  0  0  0  0  0
   32.3581   27.9254   39.1621 C   0  0  0  0  0  0  0  0  0  0  0  0
   32.0550   27.3744   37.8194 C   0  0  0  0  0  0  0  0  0  0  0  0
   32.5703   26.2868   37.4404 O   0  0  0  0  0  0  0  0  0  0  0  0
   34.9498   27.2928   42.2113 Cl  0  0  0  0  0  0  0  0  0  0  0  0
   24.8908   26.7905   36.3050 H   0  0  0  0  0  0  0  0  0  0  0  0
   23.6981   25.8077   35.4228 H   0  0  0  0  0  0  0  0  0  0  0  0
   32.8492   27.8916   34.9145 H   0  0  0  0  0  0  0  0  0  0  0  0
   32.2651   27.1220   32.6246 H   0  0  0  0  0  0  0  0  0  0  0  0
   30.0113   26.2787   32.1078 H   0  0  0  0  0  0  0  0  0  0  0  0
   27.6977   26.2229   31.7183 H   0  0  0  0  0  0  0  0  0  0  0  0
   27.3415   24.6831   32.5416 H   0  0  0  0  0  0  0  0  0  0  0  0
   29.8051   29.7210   36.7553 H   0  0  0  0  0  0  0  0  0  0  0  0
   31.5283   30.1479   37.0512 H   0  0  0  0  0  0  0  0  0  0  0  0
   30.2102   30.5891   39.0605 H   0  0  0  0  0  0  0  0  0  0  0  0
   29.5229   28.9252   39.0550 H   0  0  0  0  0  0  0  0  0  0  0  0
   31.0129   30.4305   43.4918 H   0  0  0  0  0  0  0  0  0  0  0  0
   30.3852   31.9721   42.7983 H   0  0  0  0  0  0  0  0  0  0  0  0
   32.1599   31.6541   42.7804 H   0  0  0  0  0  0  0  0  0  0  0  0
   33.0909   29.3823   42.6917 H   0  0  0  0  0  0  0  0  0  0  0  0
  1  2  1  0
  2  3  2  0
  2  4  1  0
  4  5  2  0
  5  6  1  0
  6  7  2  0
  7  8  1  0
  8  9  2  0
  9 10  1  0
 10 11  2  0
 11 12  1  0
 12 13  2  0
 13 14  1  0
  8 15  1  0
 15 16  1  0
 16 17  1  0
 17 18  1  0
 18 19  2  0
 19 20  1  0
 20 21  1  0
 19 22  1  0
 22 23  2  0
 23 24  1  0
 24 25  1  0
 24 26  2  0
 26 27  1  0
 27 28  2  0
 23 29  1  0
 13  4  1  0
 27 15  1  0
 12  7  1  0
 26 18  1  0
  1 30  1  0
  1 31  1  0
  9 32  1  0
 10 33  1  0
 11 34  1  0
 14 35  1  0
 14 36  1  0
 16 37  1  0
 16 38  1  0
 17 39  1  0
 17 40  1  0
 21 41  1  0
 21 42  1  0
 21 43  1  0
 22 44  1  0
M  END
$$$$
confid_4
     RDKit          3D

 44 47  0  0  0  0  0  0  0  0999 V2000
   24.6900   26.1200   35.5300 N   0  0  0  0  0  0  0  0  0  0  0  0
   25.6600   25.6700   34.6600 C   0  0  0  0  0  0  0  0  0  0  0  0
   25.2400   25.0100   33.7200 O   0  0  0  0  0  0  0  0  0  0  0  0
   27.0300   26.2200   34.8800 C   0  0  0  0  0  0  0  0  0  0  0  0
   27.3500   26.7300   36.0700 N   0  0  0  0  0  0  0  0  0  0  0  0
   28.5700   27.1800   36.3300 N   0  0  0  0  0  0  0  0  0  0  0  0
   29.5300   27.1100   35.3900 C   0  0  0  0  0  0  0  0  0  0  0  0
   30.8300   27.5700   35.6500 C   0  0  0  0  0  0  0  0  0  0  0  0
   31.8500   27.5400   34.6900 C   0  0  0  0  0  0  0  0  0  0  0  0
   31.5100   27.1200   33.4000 C   0  0  0  0  0  0  0  0  0  0  0  0
   30.2200   26.6300   33.1100 C   0  0  0  0  0  0  0  0  0  0  0  0
   29.2400   26.6600   34.1000 C   0  0  0  0  0  0  0  0  0  0  0  0
   27.9300   26.2600   33.8100 C   0  0  0  0  0  0  0  0  0  0  0  0
   27.5200   25.7100   32.6100 N   0  0  0  0  0  0  0  0  0  0  0  0
   31.1486   28.0519   36.9663 N   0  0  0  0  0  0  0  0  0  0  0  0
   31.3362   27.0902   38.0562 C   0  0  0  0  0  0  0  0  0  0  0  0
   30.9094   27.7008   39.3939 C   0  0  0  0  0  0  0  0  0  0  0  0
   31.5836   29.0352   39.6351 C   0  0  0  0  0  0  0  0  0  0  0  0
   31.8541   29.4666   40.9507 C   0  0  0  0  0  0  0  0  0  0  0  0
   31.5381   28.6181   42.0255 O   0  0  0  0  0  0  0  0  0  0  0  0
   31.7569   28.9317   43.3972 C   0  0  0  0  0  0  0  0  0  0  0  0
   32.4281   30.7344   41.1569 C   0  0  0  0  0  0  0  0  0  0  0  0
   32.7095   31.5710   40.0762 C   0  0  0  0  0  0  0  0  0  0  0  0
   32.4182   31.1594   38.7727 C   0  0  0  0  0  0  0  0  0  0  0  0
   32.7028   31.9922   37.7384 F   0  0  0  0  0  0  0  0  0  0  0  0
   31.8474   29.8929   38.5427 C   0  0  0  0  0  0  0  0  0  0  0  0
   31.5200   29.4267   37.1739 C   0  0  0  0  0  0  0  0  0  0  0  0
   31.5388   30.2296   36.2007 O   0  0  0  0  0  0  0  0  0  0  0  0
   33.4255   33.1482   40.3667 Cl  0  0  0  0  0  0  0  0  0  0  0  0
   24.8908   26.7904   36.3051 H   0  0  0  0  0  0  0  0  0  0  0  0
   23.6981   25.8078   35.4227 H   0  0  0  0  0  0  0  0  0  0  0  0
   32.8525   27.8800   34.9177 H   0  0  0  0  0  0  0  0  0  0  0  0
   32.2659   27.1194   32.6254 H   0  0  0  0  0  0  0  0  0  0  0  0
   30.0115   26.2781   32.1079 H   0  0  0  0  0  0  0  0  0  0  0  0
   27.6978   26.2229   31.7183 H   0  0  0  0  0  0  0  0  0  0  0  0
   27.3415   24.6832   32.5416 H   0  0  0  0  0  0  0  0  0  0  0  0
   32.4083   26.7998   38.1039 H   0  0  0  0  0  0  0  0  0  0  0  0
   30.7385   26.1704   37.8737 H   0  0  0  0  0  0  0  0  0  0  0  0
   31.1608   26.9759   40.1975 H   0  0  0  0  0  0  0  0  0  0  0  0
   29.8084   27.8518   39.3944 H   0  0  0  0  0  0  0  0  0  0  0  0
   32.8394   29.0942   43.5839 H   0  0  0  0  0  0  0  0  0  0  0  0
   31.4129   28.0822   44.0220 H   0  0  0  0  0  0  0  0  0  0  0  0
   31.1786   29.8368   43.6790 H   0  0  0  0  0  0  0  0  0  0  0  0
   32.6546   31.0841   42.1549 H   0  0  0  0  0  0  0  0  0  0  0  0
  1  2  1  0
  2  3  2  0
  2  4  1  0
  4  5  2  0
  5  6  1  0
  6  7  2  0
  7  8  1  0
  8  9  2  0
  9 10  1  0
 10 11  2  0
 11 12  1  0
 12 13  2  0
 13 14  1  0
  8 15  1  0
 15 16  1  0
 16 17  1  0
 17 18  1  0
 18 19  2  0
 19 20  1  0
 20 21  1  0
 19 22  1  0
 22 23  2  0
 23 24  1  0
 24 25  1  0
 24 26  2  0
 26 27  1  0
 27 28  2  0
 23 29  1  0
 13  4  1  0
 27 15  1  0
 12  7  1  0
 26 18  1  0
  1 30  1  0
  1 31  1  0
  9 32  1  0
 10 33  1  0
 11 34  1  0
 14 35  1  0
 14 36  1  0
 16 37  1  0
 16 38  1  0
 17 39  1  0
 17 40  1  0
 21 41  1  0
 21 42  1  0
 21 43  1  0
 22 44  1  0
M  END
$$$$
confid_5
     RDKit          3D

 44 47  0  0  0  0  0  0  0  0999 V2000
   24.6900   26.1200   35.5300 N   0  0  0  0  0  0  0  0  0  0  0  0
   25.6600   25.6700   34.6600 C   0  0  0  0  0  0  0  0  0  0  0  0
   25.2400   25.0100   33.7200 O   0  0  0  0  0  0  0  0  0  0  0  0
   27.0300   26.2200   34.8800 C   0  0  0  0  0  0  0  0  0  0  0  0
   27.3500   26.7300   36.0700 N   0  0  0  0  0  0  0  0  0  0  0  0
   28.5700   27.1800   36.3300 N   0  0  0  0  0  0  0  0  0  0  0  0
   29.5300   27.1100   35.3900 C   0  0  0  0  0  0  0  0  0  0  0  0
   30.8300   27.5700   35.6500 C   0  0  0  0  0  0  0  0  0  0  0  0
   31.8500   27.5400   34.6900 C   0  0  0  0  0  0  0  0  0  0  0  0
   31.5100   27.1200   33.4000 C   0  0  0  0  0  0  0  0  0  0  0  0
   30.2200   26.6300   33.1100 C   0  0  0  0  0  0  0  0  0  0  0  0
   29.2400   26.6600   34.1000 C   0  0  0  0  0  0  0  0  0  0  0  0
   27.9300   26.2600   33.8100 C   0  0  0  0  0  0  0  0  0  0  0  0
   27.5200   25.7100   32.6100 N   0  0  0  0  0  0  0  0  0  0  0  0
   31.1560   28.0804   36.9563 N   0  0  0  0  0  0  0  0  0  0  0  0
   30.4667   29.2631   37.4816 C   0  0  0  0  0  0  0  0  0  0  0  0
   31.4488   30.1663   38.2324 C   0  0  0  0  0  0  0  0  0  0  0  0
   32.2211   29.3946   39.2823 C   0  0  0  0  0  0  0  0  0  0  0  0
   32.6785   30.0455   40.4474 C   0  0  0  0  0  0  0  0  0  0  0  0
   32.3619   31.4011   40.6404 O   0  0  0  0  0  0  0  0  0  0  0  0
   32.7615   32.1742   41.7675 C   0  0  0  0  0  0  0  0  0  0  0  0
   33.4425   29.3267   41.3848 C   0  0  0  0  0  0  0  0  0  0  0  0
   33.7669   27.9883   41.1601 C   0  0  0  0  0  0  0  0  0  0  0  0
   33.3395   27.3463   39.9947 C   0  0  0  0  0  0  0  0  0  0  0  0
   33.6697   26.0434   39.8002 F   0  0  0  0  0  0  0  0  0  0  0  0
   32.5700   28.0451   39.0446 C   0  0  0  0  0  0  0  0  0  0  0  0
   32.1049   27.3970   37.7944 C   0  0  0  0  0  0  0  0  0  0  0  0
   32.5373   26.2600   37.4597 O   0  0  0  0  0  0  0  0  0  0  0  0
   34.7235   27.1188   42.3492 Cl  0  0  0  0  0  0  0  0  0  0  0  0
   24.8908   26.7906   36.3050 H   0  0  0  0  0  0  0  0  0  0  0  0
   23.6981   25.8078   35.4227 H   0  0  0  0  0  0  0  0  0  0  0  0
   32.8491   27.8929   34.9135 H   0  0  0  0  0  0  0  0  0  0  0  0
   32.2636   27.1275   32.6232 H   0  0  0  0  0  0  0  0  0  0  0  0
   30.0100   26.3036   32.1003 H   0  0  0  0  0  0  0  0  0  0  0  0
   28.1317   25.0436   32.0892 H   0  0  0  0  0  0  0  0  0  0  0  0
   26.6941   26.1028   32.1054 H   0  0  0  0  0  0  0  0  0  0  0  0
   29.6593   28.9398   38.1741 H   0  0  0  0  0  0  0  0  0  0  0  0
   30.0049   29.8439   36.6528 H   0  0  0  0  0  0  0  0  0  0  0  0
   30.8693   30.9951   38.6928 H   0  0  0  0  0  0  0  0  0  0  0  0
   32.1700   30.6060   37.5102 H   0  0  0  0  0  0  0  0  0  0  0  0
   32.3733   33.2071   41.6540 H   0  0  0  0  0  0  0  0  0  0  0  0
   33.8695   32.2161   41.8286 H   0  0  0  0  0  0  0  0  0  0  0  0
   32.3419   31.7376   42.6983 H   0  0  0  0  0  0  0  0  0  0  0  0
   33.7962   29.8000   42.2906 H   0  0  0  0  0  0  0  0  0  0  0  0
  1  2  1  0
  2  3  2  0
  2  4  1  0
  4  5  2  0
  5  6  1  0
  6  7  2  0
  7  8  1  0
  8  9  2  0
  9 10  1  0
 10 11  2  0
 11 12  1  0
 12 13  2  0
 13 14  1  0
  8 15  1  0
 15 16  1  0
 16 17  1  0
 17 18  1  0
 18 19  2  0
 19 20  1  0
 20 21  1  0
 19 22  1  0
 22 23  2  0
 23 24  1  0
 24 25  1  0
 24 26  2  0
 26 27  1  0
 27 28  2  0
 23 29  1  0
 13  4  1  0
 27 15  1  0
 12  7  1  0
 26 18  1  0
  1 30  1  0
  1 31  1  0
  9 32  1  0
 10 33  1  0
 11 34  1  0
 14 35  1  0
 14 36  1  0
 16 37  1  0
 16 38  1  0
 17 39  1  0
 17 40  1  0
 21 41  1  0
 21 42  1  0
 21 43  1  0
 22 44  1  0
M  END
$$$$
confid_6
     RDKit          3D

 44 47  0  0  0  0  0  0  0  0999 V2000
   24.6900   26.1200   35.5300 N   0  0  0  0  0  0  0  0  0  0  0  0
   25.6600   25.6700   34.6600 C   0  0  0  0  0  0  0  0  0  0  0  0
   25.2400   25.0100   33.7200 O   0  0  0  0  0  0  0  0  0  0  0  0
   27.0300   26.2200   34.8800 C   0  0  0  0  0  0  0  0  0  0  0  0
   27.3500   26.7300   36.0700 N   0  0  0  0  0  0  0  0  0  0  0  0
   28.5700   27.1800   36.3300 N   0  0  0  0  0  0  0  0  0  0  0  0
   29.5300   27.1100   35.3900 C   0  0  0  0  0  0  0  0  0  0  0  0
   30.8300   27.5700   35.6500 C   0  0  0  0  0  0  0  0  0  0  0  0
   31.8500   27.5400   34.6900 C   0  0  0  0  0  0  0  0  0  0  0  0
   31.5100   27.1200   33.4000 C   0  0  0  0  0  0  0  0  0  0  0  0
   30.2200   26.6300   33.1100 C   0  0  0  0  0  0  0  0  0  0  0  0
   29.2400   26.6600   34.1000 C   0  0  0  0  0  0  0  0  0  0  0  0
   27.9300   26.2600   33.8100 C   0  0  0  0  0  0  0  0  0  0  0  0
   27.5200   25.7100   32.6100 N   0  0  0  0  0  0  0  0  0  0  0  0
   31.1552   28.0639   36.9589 N   0  0  0  0  0  0  0  0  0  0  0  0
   31.8183   27.1722   37.9135 C   0  0  0  0  0  0  0  0  0  0  0  0
   32.7162   27.9676   38.8656 C   0  0  0  0  0  0  0  0  0  0  0  0
   31.9649   29.1120   39.5129 C   0  0  0  0  0  0  0  0  0  0  0  0
   32.3220   29.5576   40.8030 C   0  0  0  0  0  0  0  0  0  0  0  0
   33.3442   28.8884   41.4974 O   0  0  0  0  0  0  0  0  0  0  0  0
   33.8012   29.2363   42.8004 C   0  0  0  0  0  0  0  0  0  0  0  0
   31.6522   30.6615   41.3618 C   0  0  0  0  0  0  0  0  0  0  0  0
   30.6582   31.3273   40.6434 C   0  0  0  0  0  0  0  0  0  0  0  0
   30.3197   30.9066   39.3543 C   0  0  0  0  0  0  0  0  0  0  0  0
   29.3473   31.5701   38.6771 F   0  0  0  0  0  0  0  0  0  0  0  0
   30.9742   29.8014   38.7775 C   0  0  0  0  0  0  0  0  0  0  0  0
   30.6422   29.3294   37.4124 C   0  0  0  0  0  0  0  0  0  0  0  0
   29.9350   30.0361   36.6426 O   0  0  0  0  0  0  0  0  0  0  0  0
   29.8408   32.7025   41.3683 Cl  0  0  0  0  0  0  0  0  0  0  0  0
   24.8908   26.7906   36.3049 H   0  0  0  0  0  0  0  0  0  0  0  0
   23.6981   25.8078   35.4227 H   0  0  0  0  0  0  0  0  0  0  0  0
   32.8500   27.8878   34.9169 H   0  0  0  0  0  0  0  0  0  0  0  0
   32.2640   27.1262   32.6235 H   0  0  0  0  0  0  0  0  0  0  0  0
   30.0101   26.3033   32.1004 H   0  0  0  0  0  0  0  0  0  0  0  0
   26.6941   26.1028   32.1054 H   0  0  0  0  0  0  0  0  0  0  0  0
   28.1316   25.0435   32.0893 H   0  0  0  0  0  0  0  0  0  0  0  0
   32.4402   26.4227   37.3762 H   0  0  0  0  0  0  0  0  0  0  0  0
   31.0457   26.6263   38.4978 H   0  0  0  0  0  0  0  0  0  0  0  0
   33.1112   27.2657   39.6309 H   0  0  0  0  0  0  0  0  0  0  0  0
   33.5770   28.3823   38.2982 H   0  0  0  0  0  0  0  0  0  0  0  0
   34.6129   28.5411   43.0970 H   0  0  0  0  0  0  0  0  0  0  0  0
   34.2027   30.2717   42.8006 H   0  0  0  0  0  0  0  0  0  0  0  0
   32.9714   29.1464   43.5328 H   0  0  0  0  0  0  0  0  0  0  0  0
   31.9001   31.0161   42.3528 H   0  0  0  0  0  0  0  0  0  0  0  0
  1  2  1  0
  2  3  2  0
  2  4  1  0
  4  5  2  0
  5  6  1  0
  6  7  2  0
  7  8  1  0
  8  9  2  0
  9 10  1  0
 10 11  2  0
 11 12  1  0
 12 13  2  0
 13 14  1  0
  8 15  1  0
 15 16  1  0
 16 17  1  0
 17 18  1  0
 18 19  2  0
 19 20  1  0
 20 21  1  0
 19 22  1  0
 22 23  2  0
 23 24  1  0
 24 25  1  0
 24 26  2  0
 26 27  1  0
 27 28  2  0
 23 29  1  0
 13  4  1  0
 27 15  1  0
 12  7  1  0
 26 18  1  0
  1 30  1  0
  1 31  1  0
  9 32  1  0
 10 33  1  0
 11 34  1  0
 14 35  1  0
 14 36  1  0
 16 37  1  0
 16 38  1  0
 17 39  1  0
 17 40  1  0
 21 41  1  0
 21 42  1  0
 21 43  1  0
 22 44  1  0
M  END
$$$$
confid_7
     RDKit          3D

 44 47  0  0  0  0  0  0  0  0999 V2000
   24.6900   26.1200   35.5300 N   0  0  0  0  0  0  0  0  0  0  0  0
   25.6600   25.6700   34.6600 C   0  0  0  0  0  0  0  0  0  0  0  0
   25.2400   25.0100   33.7200 O   0  0  0  0  0  0  0  0  0  0  0  0
   27.0300   26.2200   34.8800 C   0  0  0  0  0  0  0  0  0  0  0  0
   27.3500   26.7300   36.0700 N   0  0  0  0  0  0  0  0  0  0  0  0
   28.5700   27.1800   36.3300 N   0  0  0  0  0  0  0  0  0  0  0  0
   29.5300   27.1100   35.3900 C   0  0  0  0  0  0  0  0  0  0  0  0
   30.8300   27.5700   35.6500 C   0  0  0  0  0  0  0  0  0  0  0  0
   31.8500   27.5400   34.6900 C   0  0  0  0  0  0  0  0  0  0  0  0
   31.5100   27.1200   33.4000 C   0  0  0  0  0  0  0  0  0  0  0  0
   30.2200   26.6300   33.1100 C   0  0  0  0  0  0  0  0  0  0  0  0
   29.2400   26.6600   34.1000 C   0  0  0  0  0  0  0  0  0  0  0  0
   27.9300   26.2600   33.8100 C   0  0  0  0  0  0  0  0  0  0  0  0
   27.5200   25.7100   32.6100 N   0  0  0  0  0  0  0  0  0  0  0  0
   31.0908   28.2313   36.9059 N   0  0  0  0  0  0  0  0  0  0  0  0
   30.4272   29.5113   37.1793 C   0  0  0  0  0  0  0  0  0  0  0  0
   30.1324   29.6468   38.6721 C   0  0  0  0  0  0  0  0  0  0  0  0
   31.3906   29.4591   39.4900 C   0  0  0  0  0  0  0  0  0  0  0  0
   31.5488   30.1467   40.7090 C   0  0  0  0  0  0  0  0  0  0  0  0
   30.4825   30.9181   41.1868 O   0  0  0  0  0  0  0  0  0  0  0  0
   30.5811   31.9122   42.2083 C   0  0  0  0  0  0  0  0  0  0  0  0
   32.7417   29.9959   41.4349 C   0  0  0  0  0  0  0  0  0  0  0  0
   33.7387   29.1248   40.9845 C   0  0  0  0  0  0  0  0  0  0  0  0
   33.5598   28.3926   39.8054 C   0  0  0  0  0  0  0  0  0  0  0  0
   34.5419   27.5455   39.3944 F   0  0  0  0  0  0  0  0  0  0  0  0
   32.3811   28.5496   39.0521 C   0  0  0  0  0  0  0  0  0  0  0  0
   32.1695   27.8249   37.7706 C   0  0  0  0  0  0  0  0  0  0  0  0
   32.9043   26.8498   37.4538 O   0  0  0  0  0  0  0  0  0  0  0  0
   35.1976   28.9156   41.9411 Cl  0  0  0  0  0  0  0  0  0  0  0  0
   23.7107   25.7569   35.4644 H   0  0  0  0  0  0  0  0  0  0  0  0
   24.8816   26.8246   36.2764 H   0  0  0  0  0  0  0  0  0  0  0  0
   32.8389   27.9268   34.8995 H   0  0  0  0  0  0  0  0  0  0  0  0
   32.2614   27.1358   32.6208 H   0  0  0  0  0  0  0  0  0  0  0  0
   30.0089   26.3071   32.0991 H   0  0  0  0  0  0  0  0  0  0  0  0
   26.6919   26.0996   32.1069 H   0  0  0  0  0  0  0  0  0  0  0  0
   28.1311   25.0432   32.0892 H   0  0  0  0  0  0  0  0  0  0  0  0
   29.4712   29.5947   36.6234 H   0  0  0  0  0  0  0  0  0  0  0  0
   31.0821   30.3388   36.8379 H   0  0  0  0  0  0  0  0  0  0  0  0
   29.6885   30.6515   38.8469 H   0  0  0  0  0  0  0  0  0  0  0  0
   29.3868   28.8782   38.9722 H   0  0  0  0  0  0  0  0  0  0  0  0
   30.8447   31.4377   43.1767 H   0  0  0  0  0  0  0  0  0  0  0  0
   31.3448   32.6713   41.9310 H   0  0  0  0  0  0  0  0  0  0  0  0
   29.5961   32.4168   42.3180 H   0  0  0  0  0  0  0  0  0  0  0  0
   32.8632   30.4740   42.4037 H   0  0  0  0  0  0  0  0  0  0  0  0
  1  2  1  0
  2  3  2  0
  2  4  1  0
  4  5  2  0
  5  6  1  0
  6  7  2  0
  7  8  1  0
  8  9  2  0
  9 10  1  0
 10 11  2  0
 11 12  1  0
 12 13  2  0
 13 14  1  0
  8 15  1  0
 15 16  1  0
 16 17  1  0
 17 18  1  0
 18 19  2  0
 19 20  1  0
 20 21  1  0
 19 22  1  0
 22 23  2  0
 23 24  1  0
 24 25  1  0
 24 26  2  0
 26 27  1  0
 27 28  2  0
 23 29  1  0
 13  4  1  0
 27 15  1  0
 12  7  1  0
 26 18  1  0
  1 30  1  0
  1 31  1  0
  9 32  1  0
 10 33  1  0
 11 34  1  0
 14 35  1  0
 14 36  1  0
 16 37  1  0
 16 38  1  0
 17 39  1  0
 17 40  1  0
 21 41  1  0
 21 42  1  0
 21 43  1  0
 22 44  1  0
M  END
$$$$
confid_8
     RDKit          3D

 44 47  0  0  0  0  0  0  0  0999 V2000
   24.6900   26.1200   35.5300 N   0  0  0  0  0  0  0  0  0  0  0  0
   25.6600   25.6700   34.6600 C   0  0  0  0  0  0  0  0  0  0  0  0
   25.2400   25.0100   33.7200 O   0  0  0  0  0  0  0  0  0  0  0  0
   27.0300   26.2200   34.8800 C   0  0  0  0  0  0  0  0  0  0  0  0
   27.3500   26.7300   36.0700 N   0  0  0  0  0  0  0  0  0  0  0  0
   28.5700   27.1800   36.3300 N   0  0  0  0  0  0  0  0  0  0  0  0
   29.5300   27.1100   35.3900 C   0  0  0  0  0  0  0  0  0  0  0  0
   30.8300   27.5700   35.6500 C   0  0  0  0  0  0  0  0  0  0  0  0
   31.8500   27.5400   34.6900 C   0  0  0  0  0  0  0  0  0  0  0  0
   31.5100   27.1200   33.4000 C   0  0  0  0  0  0  0  0  0  0  0  0
   30.2200   26.6300   33.1100 C   0  0  0  0  0  0  0  0  0  0  0  0
   29.2400   26.6600   34.1000 C   0  0  0  0  0  0  0  0  0  0  0  0
   27.9300   26.2600   33.8100 C   0  0  0  0  0  0  0  0  0  0  0  0
   27.5200   25.7100   32.6100 N   0  0  0  0  0  0  0  0  0  0  0  0
   31.1499   28.0633   36.9645 N   0  0  0  0  0  0  0  0  0  0  0  0
   31.7124   29.4073   37.1214 C   0  0  0  0  0  0  0  0  0  0  0  0
   31.2085   30.0511   38.4158 C   0  0  0  0  0  0  0  0  0  0  0  0
   31.4338   29.1503   39.6123 C   0  0  0  0  0  0  0  0  0  0  0  0
   31.6202   29.7100   40.8938 C   0  0  0  0  0  0  0  0  0  0  0  0
   31.6451   31.1085   41.0302 O   0  0  0  0  0  0  0  0  0  0  0  0
   31.8226   31.7997   42.2625 C   0  0  0  0  0  0  0  0  0  0  0  0
   31.7719   28.8589   42.0036 C   0  0  0  0  0  0  0  0  0  0  0  0
   31.7176   27.4734   41.8486 C   0  0  0  0  0  0  0  0  0  0  0  0
   31.5059   26.9139   40.5856 C   0  0  0  0  0  0  0  0  0  0  0  0
   31.4552   25.5622   40.4637 F   0  0  0  0  0  0  0  0  0  0  0  0
   31.3556   27.7465   39.4595 C   0  0  0  0  0  0  0  0  0  0  0  0
   31.1249   27.1863   38.1056 C   0  0  0  0  0  0  0  0  0  0  0  0
   30.9087   25.9531   37.9487 O   0  0  0  0  0  0  0  0  0  0  0  0
   31.9088   26.4378   43.2542 Cl  0  0  0  0  0  0  0  0  0  0  0  0
   24.8908   26.7904   36.3051 H   0  0  0  0  0  0  0  0  0  0  0  0
   23.6981   25.8078   35.4227 H   0  0  0  0  0  0  0  0  0  0  0  0
   32.8527   27.8809   34.9149 H   0  0  0  0  0  0  0  0  0  0  0  0
   32.2644   27.1248   32.6239 H   0  0  0  0  0  0  0  0  0  0  0  0
   30.0102   26.3030   32.1005 H   0  0  0  0  0  0  0  0  0  0  0  0
   28.1316   25.0435   32.0893 H   0  0  0  0  0  0  0  0  0  0  0  0
   26.6941   26.1028   32.1054 H   0  0  0  0  0  0  0  0  0  0  0  0
   31.4191   30.0519   36.2636 H   0  0  0  0  0  0  0  0  0  0  0  0
   32.8220   29.3399   37.1443 H   0  0  0  0  0  0  0  0  0  0  0  0
   31.7350   31.0211   38.5436 H   0  0  0  0  0  0  0  0  0  0  0  0
   30.1200   30.2562   38.3245 H   0  0  0  0  0  0  0  0  0  0  0  0
   32.8056   31.5391   42.7085 H   0  0  0  0  0  0  0  0  0  0  0  0
   31.7984   32.8921   42.0715 H   0  0  0  0  0  0  0  0  0  0  0  0
   31.0021   31.5439   42.9656 H   0  0  0  0  0  0  0  0  0  0  0  0
   31.9262   29.2632   42.9946 H   0  0  0  0  0  0  0  0  0  0  0  0
  1  2  1  0
  2  3  2  0
  2  4  1  0
  4  5  2  0
  5  6  1  0
  6  7  2  0
  7  8  1  0
  8  9  2  0
  9 10  1  0
 10 11  2  0
 11 12  1  0
 12 13  2  0
 13 14  1  0
  8 15  1  0
 15 16  1  0
 16 17  1  0
 17 18  1  0
 18 19  2  0
 19 20  1  0
 20 21  1  0
 19 22  1  0
 22 23  2  0
 23 24  1  0
 24 25  1  0
 24 26  2  0
 26 27  1  0
 27 28  2  0
 23 29  1  0
 13  4  1  0
 27 15  1  0
 12  7  1  0
 26 18  1  0
  1 30  1  0
  1 31  1  0
  9 32  1  0
 10 33  1  0
 11 34  1  0
 14 35  1  0
 14 36  1  0
 16 37  1  0
 16 38  1  0
 17 39  1  0
 17 40  1  0
 21 41  1  0
 21 42  1  0
 21 43  1  0
 22 44  1  0
M  END
$$$$
