confid_0
     RDKit          3D

 47 52  0  0  0  0  0  0  0  0999 V2000
   24.6900   26.1200   35.5300 N   0  0  0  0  0  0  0  0  0  0  0  0
   25.6600   25.6700   34.6600 C   0  0  0  0  0  0  0  0  0  0  0  0
   25.2400   25.0100   33.7200 O   0  0  0  0  0  0  0  0  0  0  0  0
   27.0300   26.2200   34.8800 C   0  0  0  0  0  0  0  0  0  0  0  0
   27.3500   26.7300   36.0700 N   0  0  0  0  0  0  0  0  0  0  0  0
   28.5700   27.1800   36.3300 N   0  0  0  0  0  0  0  0  0  0  0  0
   29.5300   27.1100   35.3900 C   0  0  0  0  0  0  0  0  0  0  0  0
   30.8300   27.5700   35.6500 C   0  0  0  0  0  0  0  0  0  0  0  0
   31.8500   27.5400   34.6900 C   0  0  0  0  0  0  0  0  0  0  0  0
   31.5100   27.1200   33.4000 C   0  0  0  0  0  0  0  0  0  0  0  0
   30.2200   26.6300   33.1100 C   0  0  0  0  0  0  0  0  0  0  0  0
   29.2400   26.6600   34.1000 C   0  0  0  0  0  0  0  0  0  0  0  0
   27.9300   26.2600   33.8100 C   0  0  0  0  0  0  0  0  0  0  0  0
   27.5200   25.7100   32.6100 N   0  0  0  0  0  0  0  0  0  0  0  0
   23.5185   25.3687   35.9123 C   0  0  0  0  0  0  0  0  0  0  0  0
   23.1167   24.3885   35.1535 N   0  0  0  0  0  0  0  0  0  0  0  0
   22.0205   23.4775   35.3027 C   0  0  0  0  0  0  0  0  0  0  0  0
   20.7952   23.8944   35.5865 C   0  0  0  0  0  0  0  0  0  0  0  0
   19.3888   23.3842   35.4815 C   0  0  0  0  0  0  0  0  0  0  0  0
   18.7945   24.5836   35.8601 O   0  0  0  0  0  0  0  0  0  0  0  0
   20.0663   25.1260   36.0291 C   0  0  0  0  0  0  0  0  0  0  0  0
   20.3072   25.4432   37.5050 C   0  0  0  0  0  0  0  0  0  0  0  0
   21.7383   25.7200   37.8320 C   0  0  0  0  0  0  0  0  0  0  0  0
   22.9229   25.6802   37.2302 C   0  0  0  0  0  0  0  0  0  0  0  0
   23.5267   26.1605   38.4632 C   0  0  0  0  0  0  0  0  0  0  0  0
   24.9168   26.4957   38.8994 C   0  0  0  0  0  0  0  0  0  0  0  0
   25.3540   25.8127   40.1845 C   0  0  0  0  0  0  0  0  0  0  0  0
   25.8832   25.3233   38.8475 C   0  0  0  0  0  0  0  0  0  0  0  0
   22.3648   26.1870   39.0266 N   0  0  0  0  0  0  0  0  0  0  0  0
   24.8564   27.0158   36.0425 H   0  0  0  0  0  0  0  0  0  0  0  0
   31.0672   27.9416   36.6393 H   0  0  0  0  0  0  0  0  0  0  0  0
   32.8483   27.8885   34.9211 H   0  0  0  0  0  0  0  0  0  0  0  0
   32.2640   27.1260   32.6235 H   0  0  0  0  0  0  0  0  0  0  0  0
   30.0102   26.3034   32.1003 H   0  0  0  0  0  0  0  0  0  0  0  0
   26.6930   26.1017   32.1064 H   0  0  0  0  0  0  0  0  0  0  0  0
   28.1327   25.0463   32.0875 H   0  0  0  0  0  0  0  0  0  0  0  0
   22.1273   22.4821   34.8932 H   0  0  0  0  0  0  0  0  0  0  0  0
   19.1792   22.5739   36.2143 H   0  0  0  0  0  0  0  0  0  0  0  0
   19.1199   23.1134   34.4368 H   0  0  0  0  0  0  0  0  0  0  0  0
   20.2397   25.9945   35.3553 H   0  0  0  0  0  0  0  0  0  0  0  0
   19.9680   24.5947   38.1382 H   0  0  0  0  0  0  0  0  0  0  0  0
   19.7030   26.3326   37.7826 H   0  0  0  0  0  0  0  0  0  0  0  0
   25.3521   27.4962   38.6929 H   0  0  0  0  0  0  0  0  0  0  0  0
   24.6170   25.1255   40.6526 H   0  0  0  0  0  0  0  0  0  0  0  0
   26.0977   26.3834   40.7793 H   0  0  0  0  0  0  0  0  0  0  0  0
   26.9402   25.6028   38.6564 H   0  0  0  0  0  0  0  0  0  0  0  0
   25.4551   24.3516   38.5191 H   0  0  0  0  0  0  0  0  0  0  0  0
  1  2  1  0
  2  3  2  0
  2  4  1  0
  4  5  2  0
  5  6  1  0
  6  7  2  0
  7  8  1  0
  8  9  2  0
  9 10  1  0
 10 11  2  0
 11 12  1  0
 12 13  2  0
 13 14  1  0
  1 15  1  0
 15 16  2  0
 16 17  1  0
 17 18  2  0
 18 19  1  0
 19 20  1  0
 20 21  1  0
 21 22  1  0
 22 23  1  0
 23 24  2  0
 24 25  1  0
 25 26  1  0
 26 27  1  0
 27 28  1  0
 25 29  2  0
 13  4  1  0
 24 15  1  0
 28 26  1  0
 12  7  1  0
 21 18  1  0
 29 23  1  0
  1 30  1  0
  8 31  1  0
  9 32  1  0
 10 33  1  0
 11 34  1  0
 14 35  1  0
 14 36  1  0
 17 37  1  0
 19 38  1  0
 19 39  1  0
 21 40  1  0
 22 41  1  0
 22 42  1  0
 26 43  1  0
 27 44  1  0
 27 45  1  0
 28 46  1  0
 28 47  1  0
M  END
$$$$
