confid_0
     RDKit          3D

 46 50  0  0  0  0  0  0  0  0999 V2000
   24.5500   26.3900   36.2500 N   0  0  0  0  0  0  0  0  0  0  0  0
   25.6000   26.1300   35.4000 C   0  0  0  0  0  0  0  0  0  0  0  0
   25.4300   25.4300   34.4200 O   0  0  0  0  0  0  0  0  0  0  0  0
   26.9800   26.6300   35.7100 C   0  0  0  0  0  0  0  0  0  0  0  0
   27.3200   26.8200   36.9800 N   0  0  0  0  0  0  0  0  0  0  0  0
   28.4700   27.4000   37.3100 N   0  0  0  0  0  0  0  0  0  0  0  0
   29.4000   27.6300   36.3700 C   0  0  0  0  0  0  0  0  0  0  0  0
   30.6600   28.0500   36.8000 C   0  0  0  0  0  0  0  0  0  0  0  0
   31.5700   28.3600   35.7800 C   0  0  0  0  0  0  0  0  0  0  0  0
   31.3700   28.1000   34.4300 C   0  0  0  0  0  0  0  0  0  0  0  0
   30.1200   27.5900   34.0500 C   0  0  0  0  0  0  0  0  0  0  0  0
   29.1500   27.3400   35.0300 C   0  0  0  0  0  0  0  0  0  0  0  0
   27.8800   26.8900   34.6600 C   0  0  0  0  0  0  0  0  0  0  0  0
   27.4800   26.6100   33.3700 N   0  0  0  0  0  0  0  0  0  0  0  0
   30.9497   28.3342   38.1783 N   0  0  0  0  0  0  0  0  0  0  0  0
   30.3356   29.4734   38.8707 C   0  0  0  0  0  0  0  0  0  0  0  0
   31.3123   29.8814   39.9982 C   0  0  0  0  0  0  0  0  0  0  0  0
   32.4032   28.8862   39.8665 C   0  0  0  0  0  0  0  0  0  0  0  0
   33.4964   28.7822   40.6597 N   0  0  0  0  0  0  0  0  0  0  0  0
   34.3986   27.7847   40.4454 C   0  0  0  0  0  0  0  0  0  0  0  0
   34.1936   26.8338   39.4222 C   0  0  0  0  0  0  0  0  0  0  0  0
   33.0401   26.9397   38.6048 C   0  0  0  0  0  0  0  0  0  0  0  0
   32.6491   25.7144   37.4012 Cl  0  0  0  0  0  0  0  0  0  0  0  0
   32.1708   28.0197   38.8394 C   0  0  0  0  0  0  0  0  0  0  0  0
   35.1572   25.7850   39.2497 N   0  0  0  0  0  0  0  0  0  0  0  0
   36.4256   25.3943   39.8943 C   0  0  0  0  0  0  0  0  0  0  0  0
   36.6972   24.2161   39.0213 C   0  0  0  0  0  0  0  0  0  0  0  0
   35.4129   24.6203   38.3793 C   0  0  0  0  0  0  0  0  0  0  0  0
   24.6739   26.9932   37.0933 H   0  0  0  0  0  0  0  0  0  0  0  0
   23.6001   26.0040   36.0503 H   0  0  0  0  0  0  0  0  0  0  0  0
   32.5262   28.7807   36.0649 H   0  0  0  0  0  0  0  0  0  0  0  0
   32.1331   28.3216   33.6951 H   0  0  0  0  0  0  0  0  0  0  0  0
   29.9372   27.4182   32.9983 H   0  0  0  0  0  0  0  0  0  0  0  0
   26.5962   27.0149   32.9873 H   0  0  0  0  0  0  0  0  0  0  0  0
   28.1243   26.1388   32.6978 H   0  0  0  0  0  0  0  0  0  0  0  0
   30.1911   30.3217   38.1658 H   0  0  0  0  0  0  0  0  0  0  0  0
   29.3543   29.1716   39.2951 H   0  0  0  0  0  0  0  0  0  0  0  0
   30.8306   29.7979   40.9958 H   0  0  0  0  0  0  0  0  0  0  0  0
   31.7068   30.9074   39.8366 H   0  0  0  0  0  0  0  0  0  0  0  0
   35.2700   27.7184   41.0833 H   0  0  0  0  0  0  0  0  0  0  0  0
   36.2598   25.1099   40.9574 H   0  0  0  0  0  0  0  0  0  0  0  0
   37.1911   26.1942   39.7824 H   0  0  0  0  0  0  0  0  0  0  0  0
   36.6327   23.2461   39.5607 H   0  0  0  0  0  0  0  0  0  0  0  0
   37.5807   24.3540   38.3607 H   0  0  0  0  0  0  0  0  0  0  0  0
   34.6207   23.8483   38.5008 H   0  0  0  0  0  0  0  0  0  0  0  0
   35.5490   24.9352   37.3206 H   0  0  0  0  0  0  0  0  0  0  0  0
  1  2  1  0
  2  3  2  0
  2  4  1  0
  4  5  2  0
  5  6  1  0
  6  7  2  0
  7  8  1  0
  8  9  2  0
  9 10  1  0
 10 11  2  0
 11 12  1  0
 12 13  2  0
 13 14  1  0
  8 15  1  0
 15 16  1  0
 16 17  1  0
 17 18  1  0
 18 19  2  0
 19 20  1  0
 20 21  2  0
 21 22  1  0
 22 23  1  0
 22 24  2  0
 21 25  1  0
 25 26  1  0
 26 27  1  0
 27 28  1  0
 13  4  1  0
 24 15  1  0
 28 25  1  0
 12  7  1  0
 24 18  1  0
  1 29  1  0
  1 30  1  0
  9 31  1  0
 10 32  1  0
 11 33  1  0
 14 34  1  0
 14 35  1  0
 16 36  1  0
 16 37  1  0
 17 38  1  0
 17 39  1  0
 20 40  1  0
 26 41  1  0
 26 42  1  0
 27 43  1  0
 27 44  1  0
 28 45  1  0
 28 46  1  0
M  END
$$$$
confid_1
     RDKit          3D

 46 50  0  0  0  0  0  0  0  0999 V2000
   24.5500   26.3900   36.2500 N   0  0  0  0  0  0  0  0  0  0  0  0
   25.6000   26.1300   35.4000 C   0  0  0  0  0  0  0  0  0  0  0  0
   25.4300   25.4300   34.4200 O   0  0  0  0  0  0  0  0  0  0  0  0
   26.9800   26.6300   35.7100 C   0  0  0  0  0  0  0  0  0  0  0  0
   27.3200   26.8200   36.9800 N   0  0  0  0  0  0  0  0  0  0  0  0
   28.4700   27.4000   37.3100 N   0  0  0  0  0  0  0  0  0  0  0  0
   29.4000   27.6300   36.3700 C   0  0  0  0  0  0  0  0  0  0  0  0
   30.6600   28.0500   36.8000 C   0  0  0  0  0  0  0  0  0  0  0  0
   31.5700   28.3600   35.7800 C   0  0  0  0  0  0  0  0  0  0  0  0
   31.3700   28.1000   34.4300 C   0  0  0  0  0  0  0  0  0  0  0  0
   30.1200   27.5900   34.0500 C   0  0  0  0  0  0  0  0  0  0  0  0
   29.1500   27.3400   35.0300 C   0  0  0  0  0  0  0  0  0  0  0  0
   27.8800   26.8900   34.6600 C   0  0  0  0  0  0  0  0  0  0  0  0
   27.4800   26.6100   33.3700 N   0  0  0  0  0  0  0  0  0  0  0  0
   30.9497   28.3342   38.1783 N   0  0  0  0  0  0  0  0  0  0  0  0
   30.3356   29.4734   38.8707 C   0  0  0  0  0  0  0  0  0  0  0  0
   31.3123   29.8814   39.9982 C   0  0  0  0  0  0  0  0  0  0  0  0
   32.4032   28.8862   39.8665 C   0  0  0  0  0  0  0  0  0  0  0  0
   33.4964   28.7822   40.6597 N   0  0  0  0  0  0  0  0  0  0  0  0
   34.3986   27.7847   40.4454 C   0  0  0  0  0  0  0  0  0  0  0  0
   34.1936   26.8338   39.4222 C   0  0  0  0  0  0  0  0  0  0  0  0
   33.0401   26.9397   38.6048 C   0  0  0  0  0  0  0  0  0  0  0  0
   32.6491   25.7144   37.4012 Cl  0  0  0  0  0  0  0  0  0  0  0  0
   32.1708   28.0197   38.8394 C   0  0  0  0  0  0  0  0  0  0  0  0
   35.1572   25.7850   39.2497 N   0  0  0  0  0  0  0  0  0  0  0  0
   35.4129   24.6203   38.3793 C   0  0  0  0  0  0  0  0  0  0  0  0
   36.6972   24.2161   39.0213 C   0  0  0  0  0  0  0  0  0  0  0  0
   36.4256   25.3943   39.8943 C   0  0  0  0  0  0  0  0  0  0  0  0
   24.6739   26.9932   37.0933 H   0  0  0  0  0  0  0  0  0  0  0  0
   23.6001   26.0040   36.0503 H   0  0  0  0  0  0  0  0  0  0  0  0
   32.5262   28.7807   36.0649 H   0  0  0  0  0  0  0  0  0  0  0  0
   32.1331   28.3216   33.6951 H   0  0  0  0  0  0  0  0  0  0  0  0
   29.9372   27.4182   32.9983 H   0  0  0  0  0  0  0  0  0  0  0  0
   28.1243   26.1388   32.6978 H   0  0  0  0  0  0  0  0  0  0  0  0
   26.5962   27.0149   32.9873 H   0  0  0  0  0  0  0  0  0  0  0  0
   30.1911   30.3217   38.1658 H   0  0  0  0  0  0  0  0  0  0  0  0
   29.3543   29.1716   39.2951 H   0  0  0  0  0  0  0  0  0  0  0  0
   30.8306   29.7979   40.9958 H   0  0  0  0  0  0  0  0  0  0  0  0
   31.7067   30.9074   39.8366 H   0  0  0  0  0  0  0  0  0  0  0  0
   35.2700   27.7184   41.0833 H   0  0  0  0  0  0  0  0  0  0  0  0
   35.5490   24.9352   37.3206 H   0  0  0  0  0  0  0  0  0  0  0  0
   34.6207   23.8483   38.5007 H   0  0  0  0  0  0  0  0  0  0  0  0
   36.6327   23.2461   39.5607 H   0  0  0  0  0  0  0  0  0  0  0  0
   37.5807   24.3540   38.3607 H   0  0  0  0  0  0  0  0  0  0  0  0
   36.2598   25.1099   40.9574 H   0  0  0  0  0  0  0  0  0  0  0  0
   37.1911   26.1942   39.7824 H   0  0  0  0  0  0  0  0  0  0  0  0
  1  2  1  0
  2  3  2  0
  2  4  1  0
  4  5  2  0
  5  6  1  0
  6  7  2  0
  7  8  1  0
  8  9  2  0
  9 10  1  0
 10 11  2  0
 11 12  1  0
 12 13  2  0
 13 14  1  0
  8 15  1  0
 15 16  1  0
 16 17  1  0
 17 18  1  0
 18 19  2  0
 19 20  1  0
 20 21  2  0
 21 22  1  0
 22 23  1  0
 22 24  2  0
 21 25  1  0
 25 26  1  0
 26 27  1  0
 27 28  1  0
 13  4  1  0
 24 15  1  0
 28 25  1  0
 12  7  1  0
 24 18  1  0
  1 29  1  0
  1 30  1  0
  9 31  1  0
 10 32  1  0
 11 33  1  0
 14 34  1  0
 14 35  1  0
 16 36  1  0
 16 37  1  0
 17 38  1  0
 17 39  1  0
 20 40  1  0
 26 41  1  0
 26 42  1  0
 27 43  1  0
 27 44  1  0
 28 45  1  0
 28 46  1  0
M  END
$$$$
confid_2
     RDKit          3D

 46 50  0  0  0  0  0  0  0  0999 V2000
   24.5500   26.3900   36.2500 N   0  0  0  0  0  0  0  0  0  0  0  0
   25.6000   26.1300   35.4000 C   0  0  0  0  0  0  0  0  0  0  0  0
   25.4300   25.4300   34.4200 O   0  0  0  0  0  0  0  0  0  0  0  0
   26.9800   26.6300   35.7100 C   0  0  0  0  0  0  0  0  0  0  0  0
   27.3200   26.8200   36.9800 N   0  0  0  0  0  0  0  0  0  0  0  0
   28.4700   27.4000   37.3100 N   0  0  0  0  0  0  0  0  0  0  0  0
   29.4000   27.6300   36.3700 C   0  0  0  0  0  0  0  0  0  0  0  0
   30.6600   28.0500   36.8000 C   0  0  0  0  0  0  0  0  0  0  0  0
   31.5700   28.3600   35.7800 C   0  0  0  0  0  0  0  0  0  0  0  0
   31.3700   28.1000   34.4300 C   0  0  0  0  0  0  0  0  0  0  0  0
   30.1200   27.5900   34.0500 C   0  0  0  0  0  0  0  0  0  0  0  0
   29.1500   27.3400   35.0300 C   0  0  0  0  0  0  0  0  0  0  0  0
   27.8800   26.8900   34.6600 C   0  0  0  0  0  0  0  0  0  0  0  0
   27.4800   26.6100   33.3700 N   0  0  0  0  0  0  0  0  0  0  0  0
   30.9693   28.2566   38.1871 N   0  0  0  0  0  0  0  0  0  0  0  0
   31.2344   27.1232   39.0798 C   0  0  0  0  0  0  0  0  0  0  0  0
   32.1545   27.6548   40.2034 C   0  0  0  0  0  0  0  0  0  0  0  0
   32.2973   29.0907   39.8621 C   0  0  0  0  0  0  0  0  0  0  0  0
   32.9735   30.0228   40.5755 N   0  0  0  0  0  0  0  0  0  0  0  0
   32.9737   31.3221   40.1672 C   0  0  0  0  0  0  0  0  0  0  0  0
   32.2456   31.7194   39.0247 C   0  0  0  0  0  0  0  0  0  0  0  0
   31.5262   30.7418   38.2922 C   0  0  0  0  0  0  0  0  0  0  0  0
   30.4764   31.1865   36.9496 Cl  0  0  0  0  0  0  0  0  0  0  0  0
   31.6104   29.4074   38.7273 C   0  0  0  0  0  0  0  0  0  0  0  0
   32.2503   33.1040   38.6488 N   0  0  0  0  0  0  0  0  0  0  0  0
   32.8720   34.3397   39.1620 C   0  0  0  0  0  0  0  0  0  0  0  0
   32.3298   35.2459   38.1089 C   0  0  0  0  0  0  0  0  0  0  0  0
   31.7052   33.9900   37.6013 C   0  0  0  0  0  0  0  0  0  0  0  0
   23.6001   26.0040   36.0503 H   0  0  0  0  0  0  0  0  0  0  0  0
   24.6739   26.9932   37.0933 H   0  0  0  0  0  0  0  0  0  0  0  0
   32.5352   28.7583   36.0668 H   0  0  0  0  0  0  0  0  0  0  0  0
   32.1348   28.3173   33.6956 H   0  0  0  0  0  0  0  0  0  0  0  0
   29.9375   27.4174   32.9983 H   0  0  0  0  0  0  0  0  0  0  0  0
   26.5962   27.0149   32.9873 H   0  0  0  0  0  0  0  0  0  0  0  0
   28.1243   26.1387   32.6978 H   0  0  0  0  0  0  0  0  0  0  0  0
   30.2780   26.7462   39.5013 H   0  0  0  0  0  0  0  0  0  0  0  0
   31.7441   26.3049   38.5250 H   0  0  0  0  0  0  0  0  0  0  0  0
   33.1462   27.1544   40.1815 H   0  0  0  0  0  0  0  0  0  0  0  0
   31.6776   27.5393   41.2002 H   0  0  0  0  0  0  0  0  0  0  0  0
   33.5243   32.0538   40.7434 H   0  0  0  0  0  0  0  0  0  0  0  0
   33.9822   34.2675   39.1330 H   0  0  0  0  0  0  0  0  0  0  0  0
   32.4881   34.5855   40.1772 H   0  0  0  0  0  0  0  0  0  0  0  0
   31.5898   35.9782   38.4988 H   0  0  0  0  0  0  0  0  0  0  0  0
   33.1137   35.6508   37.4325 H   0  0  0  0  0  0  0  0  0  0  0  0
   32.0875   33.7025   36.5964 H   0  0  0  0  0  0  0  0  0  0  0  0
   30.5938   34.0255   37.6454 H   0  0  0  0  0  0  0  0  0  0  0  0
  1  2  1  0
  2  3  2  0
  2  4  1  0
  4  5  2  0
  5  6  1  0
  6  7  2  0
  7  8  1  0
  8  9  2  0
  9 10  1  0
 10 11  2  0
 11 12  1  0
 12 13  2  0
 13 14  1  0
  8 15  1  0
 15 16  1  0
 16 17  1  0
 17 18  1  0
 18 19  2  0
 19 20  1  0
 20 21  2  0
 21 22  1  0
 22 23  1  0
 22 24  2  0
 21 25  1  0
 25 26  1  0
 26 27  1  0
 27 28  1  0
 13  4  1  0
 24 15  1  0
 28 25  1  0
 12  7  1  0
 24 18  1  0
  1 29  1  0
  1 30  1  0
  9 31  1  0
 10 32  1  0
 11 33  1  0
 14 34  1  0
 14 35  1  0
 16 36  1  0
 16 37  1  0
 17 38  1  0
 17 39  1  0
 20 40  1  0
 26 41  1  0
 26 42  1  0
 27 43  1  0
 27 44  1  0
 28 45  1  0
 28 46  1  0
M  END
$$$$
confid_3
     RDKit          3D

 46 50  0  0  0  0  0  0  0  0999 V2000
   24.5500   26.3900   36.2500 N   0  0  0  0  0  0  0  0  0  0  0  0
   25.6000   26.1300   35.4000 C   0  0  0  0  0  0  0  0  0  0  0  0
   25.4300   25.4300   34.4200 O   0  0  0  0  0  0  0  0  0  0  0  0
   26.9800   26.6300   35.7100 C   0  0  0  0  0  0  0  0  0  0  0  0
   27.3200   26.8200   36.9800 N   0  0  0  0  0  0  0  0  0  0  0  0
   28.4700   27.4000   37.3100 N   0  0  0  0  0  0  0  0  0  0  0  0
   29.4000   27.6300   36.3700 C   0  0  0  0  0  0  0  0  0  0  0  0
   30.6600   28.0500   36.8000 C   0  0  0  0  0  0  0  0  0  0  0  0
   31.5700   28.3600   35.7800 C   0  0  0  0  0  0  0  0  0  0  0  0
   31.3700   28.1000   34.4300 C   0  0  0  0  0  0  0  0  0  0  0  0
   30.1200   27.5900   34.0500 C   0  0  0  0  0  0  0  0  0  0  0  0
   29.1500   27.3400   35.0300 C   0  0  0  0  0  0  0  0  0  0  0  0
   27.8800   26.8900   34.6600 C   0  0  0  0  0  0  0  0  0  0  0  0
   27.4800   26.6100   33.3700 N   0  0  0  0  0  0  0  0  0  0  0  0
   30.9693   28.2566   38.1871 N   0  0  0  0  0  0  0  0  0  0  0  0
   31.2344   27.1232   39.0798 C   0  0  0  0  0  0  0  0  0  0  0  0
   32.1545   27.6548   40.2034 C   0  0  0  0  0  0  0  0  0  0  0  0
   32.2973   29.0907   39.8621 C   0  0  0  0  0  0  0  0  0  0  0  0
   32.9735   30.0228   40.5755 N   0  0  0  0  0  0  0  0  0  0  0  0
   32.9737   31.3221   40.1672 C   0  0  0  0  0  0  0  0  0  0  0  0
   32.2456   31.7194   39.0247 C   0  0  0  0  0  0  0  0  0  0  0  0
   31.5262   30.7418   38.2922 C   0  0  0  0  0  0  0  0  0  0  0  0
   30.4764   31.1865   36.9496 Cl  0  0  0  0  0  0  0  0  0  0  0  0
   31.6104   29.4074   38.7273 C   0  0  0  0  0  0  0  0  0  0  0  0
   32.2503   33.1040   38.6488 N   0  0  0  0  0  0  0  0  0  0  0  0
   31.7052   33.9900   37.6013 C   0  0  0  0  0  0  0  0  0  0  0  0
   32.3298   35.2459   38.1089 C   0  0  0  0  0  0  0  0  0  0  0  0
   32.8720   34.3397   39.1620 C   0  0  0  0  0  0  0  0  0  0  0  0
   24.6739   26.9932   37.0933 H   0  0  0  0  0  0  0  0  0  0  0  0
   23.6001   26.0040   36.0503 H   0  0  0  0  0  0  0  0  0  0  0  0
   32.5352   28.7583   36.0668 H   0  0  0  0  0  0  0  0  0  0  0  0
   32.1348   28.3173   33.6956 H   0  0  0  0  0  0  0  0  0  0  0  0
   29.9375   27.4174   32.9983 H   0  0  0  0  0  0  0  0  0  0  0  0
   28.1243   26.1387   32.6978 H   0  0  0  0  0  0  0  0  0  0  0  0
   26.5962   27.0149   32.9873 H   0  0  0  0  0  0  0  0  0  0  0  0
   30.2780   26.7462   39.5013 H   0  0  0  0  0  0  0  0  0  0  0  0
   31.7441   26.3049   38.5250 H   0  0  0  0  0  0  0  0  0  0  0  0
   33.1462   27.1544   40.1815 H   0  0  0  0  0  0  0  0  0  0  0  0
   31.6776   27.5393   41.2002 H   0  0  0  0  0  0  0  0  0  0  0  0
   33.5243   32.0538   40.7434 H   0  0  0  0  0  0  0  0  0  0  0  0
   30.5938   34.0255   37.6454 H   0  0  0  0  0  0  0  0  0  0  0  0
   32.0875   33.7025   36.5964 H   0  0  0  0  0  0  0  0  0  0  0  0
   33.1137   35.6508   37.4325 H   0  0  0  0  0  0  0  0  0  0  0  0
   31.5898   35.9782   38.4988 H   0  0  0  0  0  0  0  0  0  0  0  0
   32.4881   34.5855   40.1772 H   0  0  0  0  0  0  0  0  0  0  0  0
   33.9822   34.2675   39.1331 H   0  0  0  0  0  0  0  0  0  0  0  0
  1  2  1  0
  2  3  2  0
  2  4  1  0
  4  5  2  0
  5  6  1  0
  6  7  2  0
  7  8  1  0
  8  9  2  0
  9 10  1  0
 10 11  2  0
 11 12  1  0
 12 13  2  0
 13 14  1  0
  8 15  1  0
 15 16  1  0
 16 17  1  0
 17 18  1  0
 18 19  2  0
 19 20  1  0
 20 21  2  0
 21 22  1  0
 22 23  1  0
 22 24  2  0
 21 25  1  0
 25 26  1  0
 26 27  1  0
 27 28  1  0
 13  4  1  0
 24 15  1  0
 28 25  1  0
 12  7  1  0
 24 18  1  0
  1 29  1  0
  1 30  1  0
  9 31  1  0
 10 32  1  0
 11 33  1  0
 14 34  1  0
 14 35  1  0
 16 36  1  0
 16 37  1  0
 17 38  1  0
 17 39  1  0
 20 40  1  0
 26 41  1  0
 26 42  1  0
 27 43  1  0
 27 44  1  0
 28 45  1  0
 28 46  1  0
M  END
$$$$
confid_4
     RDKit          3D

 46 50  0  0  0  0  0  0  0  0999 V2000
   24.5500   26.3900   36.2500 N   0  0  0  0  0  0  0  0  0  0  0  0
   25.6000   26.1300   35.4000 C   0  0  0  0  0  0  0  0  0  0  0  0
   25.4300   25.4300   34.4200 O   0  0  0  0  0  0  0  0  0  0  0  0
   26.9800   26.6300   35.7100 C   0  0  0  0  0  0  0  0  0  0  0  0
   27.3200   26.8200   36.9800 N   0  0  0  0  0  0  0  0  0  0  0  0
   28.4700   27.4000   37.3100 N   0  0  0  0  0  0  0  0  0  0  0  0
   29.4000   27.6300   36.3700 C   0  0  0  0  0  0  0  0  0  0  0  0
   30.6600   28.0500   36.8000 C   0  0  0  0  0  0  0  0  0  0  0  0
   31.5700   28.3600   35.7800 C   0  0  0  0  0  0  0  0  0  0  0  0
   31.3700   28.1000   34.4300 C   0  0  0  0  0  0  0  0  0  0  0  0
   30.1200   27.5900   34.0500 C   0  0  0  0  0  0  0  0  0  0  0  0
   29.1500   27.3400   35.0300 C   0  0  0  0  0  0  0  0  0  0  0  0
   27.8800   26.8900   34.6600 C   0  0  0  0  0  0  0  0  0  0  0  0
   27.4800   26.6100   33.3700 N   0  0  0  0  0  0  0  0  0  0  0  0
   30.9700   28.3194   38.1755 N   0  0  0  0  0  0  0  0  0  0  0  0
   31.0464   29.6870   38.6966 C   0  0  0  0  0  0  0  0  0  0  0  0
   30.8518   29.5807   40.2273 C   0  0  0  0  0  0  0  0  0  0  0  0
   30.7061   28.1198   40.4431 C   0  0  0  0  0  0  0  0  0  0  0  0
   30.5418   27.4959   41.6341 N   0  0  0  0  0  0  0  0  0  0  0  0
   30.4590   26.1374   41.6836 C   0  0  0  0  0  0  0  0  0  0  0  0
   30.5708   25.3640   40.5076 C   0  0  0  0  0  0  0  0  0  0  0  0
   30.7578   26.0217   39.2656 C   0  0  0  0  0  0  0  0  0  0  0  0
   31.0298   25.1170   37.7788 Cl  0  0  0  0  0  0  0  0  0  0  0  0
   30.7874   27.4279   39.2704 C   0  0  0  0  0  0  0  0  0  0  0  0
   30.4966   23.9350   40.6106 N   0  0  0  0  0  0  0  0  0  0  0  0
   30.5312   22.7384   39.7465 C   0  0  0  0  0  0  0  0  0  0  0  0
   30.3398   21.7421   40.8399 C   0  0  0  0  0  0  0  0  0  0  0  0
   30.3085   22.9592   41.7013 C   0  0  0  0  0  0  0  0  0  0  0  0
   23.6001   26.0040   36.0504 H   0  0  0  0  0  0  0  0  0  0  0  0
   24.6741   26.9928   37.0936 H   0  0  0  0  0  0  0  0  0  0  0  0
   32.5299   28.7698   36.0685 H   0  0  0  0  0  0  0  0  0  0  0  0
   32.1358   28.3143   33.6957 H   0  0  0  0  0  0  0  0  0  0  0  0
   29.9366   27.3920   33.0017 H   0  0  0  0  0  0  0  0  0  0  0  0
   27.5827   27.3393   32.6301 H   0  0  0  0  0  0  0  0  0  0  0  0
   27.4183   25.6173   33.0515 H   0  0  0  0  0  0  0  0  0  0  0  0
   32.0381   30.1261   38.4549 H   0  0  0  0  0  0  0  0  0  0  0  0
   30.2421   30.3127   38.2511 H   0  0  0  0  0  0  0  0  0  0  0  0
   29.9314   30.1111   40.5531 H   0  0  0  0  0  0  0  0  0  0  0  0
   31.7406   29.9652   40.7718 H   0  0  0  0  0  0  0  0  0  0  0  0
   30.3211   25.6540   42.6417 H   0  0  0  0  0  0  0  0  0  0  0  0
   29.6844   22.7429   39.0243 H   0  0  0  0  0  0  0  0  0  0  0  0
   31.5210   22.6324   39.2491 H   0  0  0  0  0  0  0  0  0  0  0  0
   31.2334   21.1041   41.0144 H   0  0  0  0  0  0  0  0  0  0  0  0
   29.3618   21.2160   40.7882 H   0  0  0  0  0  0  0  0  0  0  0  0
   31.1579   22.9973   42.4193 H   0  0  0  0  0  0  0  0  0  0  0  0
   29.3239   23.1048   42.1991 H   0  0  0  0  0  0  0  0  0  0  0  0
  1  2  1  0
  2  3  2  0
  2  4  1  0
  4  5  2  0
  5  6  1  0
  6  7  2  0
  7  8  1  0
  8  9  2  0
  9 10  1  0
 10 11  2  0
 11 12  1  0
 12 13  2  0
 13 14  1  0
  8 15  1  0
 15 16  1  0
 16 17  1  0
 17 18  1  0
 18 19  2  0
 19 20  1  0
 20 21  2  0
 21 22  1  0
 22 23  1  0
 22 24  2  0
 21 25  1  0
 25 26  1  0
 26 27  1  0
 27 28  1  0
 13  4  1  0
 24 15  1  0
 28 25  1  0
 12  7  1  0
 24 18  1  0
  1 29  1  0
  1 30  1  0
  9 31  1  0
 10 32  1  0
 11 33  1  0
 14 34  1  0
 14 35  1  0
 16 36  1  0
 16 37  1  0
 17 38  1  0
 17 39  1  0
 20 40  1  0
 26 41  1  0
 26 42  1  0
 27 43  1  0
 27 44  1  0
 28 45  1  0
 28 46  1  0
M  END
$$$$
