confid_0
     RDKit          3D

 42 45  0  0  0  0  0  0  0  0999 V2000
   24.4800   26.1000   36.1300 N   0  0  0  0  0  0  0  0  0  0  0  0
   25.2500   26.2500   34.9900 C   0  0  0  0  0  0  0  0  0  0  0  0
   24.7400   25.7600   33.9900 O   0  0  0  0  0  0  0  0  0  0  0  0
   26.5900   26.8900   34.9600 C   0  0  0  0  0  0  0  0  0  0  0  0
   27.0600   27.2400   36.1600 N   0  0  0  0  0  0  0  0  0  0  0  0
   28.3000   27.7100   36.2400 N   0  0  0  0  0  0  0  0  0  0  0  0
   29.0500   27.9600   35.1500 C   0  0  0  0  0  0  0  0  0  0  0  0
   30.3400   28.4900   35.2600 C   0  0  0  0  0  0  0  0  0  0  0  0
   31.1100   28.8200   34.1400 C   0  0  0  0  0  0  0  0  0  0  0  0
   30.5200   28.6700   32.8800 C   0  0  0  0  0  0  0  0  0  0  0  0
   29.2900   28.0200   32.7700 C   0  0  0  0  0  0  0  0  0  0  0  0
   28.5200   27.7100   33.8900 C   0  0  0  0  0  0  0  0  0  0  0  0
   27.2700   27.0800   33.7600 C   0  0  0  0  0  0  0  0  0  0  0  0
   26.7500   26.8800   32.4900 N   0  0  0  0  0  0  0  0  0  0  0  0
   23.4722   25.0824   36.3059 C   0  0  0  0  0  0  0  0  0  0  0  0
   23.6000   23.9002   35.6454 N   0  0  0  0  0  0  0  0  0  0  0  0
   22.7278   22.8769   35.8059 C   0  0  0  0  0  0  0  0  0  0  0  0
   21.6734   22.9863   36.7153 C   0  0  0  0  0  0  0  0  0  0  0  0
   20.6858   21.8561   36.8518 C   0  0  0  0  0  0  0  0  0  0  0  0
   20.1668   21.7799   38.2139 N   0  0  0  0  0  0  0  0  0  0  0  0
   19.9274   22.9750   38.9658 C   0  0  0  0  0  0  0  0  0  0  0  0
   19.3286   22.9167   40.0733 O   0  0  0  0  0  0  0  0  0  0  0  0
   20.3567   24.3080   38.4257 C   0  0  0  0  0  0  0  0  0  0  0  0
   21.5056   24.1861   37.4402 C   0  0  0  0  0  0  0  0  0  0  0  0
   22.3820   25.2755   37.1891 C   0  0  0  0  0  0  0  0  0  0  0  0
   22.1709   26.6169   37.8553 C   0  0  0  0  0  0  0  0  0  0  0  0
   19.6767   20.2314   38.8504 Cl  0  0  0  0  0  0  0  0  0  0  0  0
   24.6956   26.7186   36.9433 H   0  0  0  0  0  0  0  0  0  0  0  0
   30.7580   28.6629   36.2441 H   0  0  0  0  0  0  0  0  0  0  0  0
   32.0983   29.2479   34.2470 H   0  0  0  0  0  0  0  0  0  0  0  0
   31.0669   28.9543   31.9901 H   0  0  0  0  0  0  0  0  0  0  0  0
   28.9258   27.8587   31.7656 H   0  0  0  0  0  0  0  0  0  0  0  0
   25.7673   27.1503   32.2658 H   0  0  0  0  0  0  0  0  0  0  0  0
   27.2969   26.3787   31.7554 H   0  0  0  0  0  0  0  0  0  0  0  0
   22.8682   21.9697   35.2323 H   0  0  0  0  0  0  0  0  0  0  0  0
   21.1648   20.8886   36.5859 H   0  0  0  0  0  0  0  0  0  0  0  0
   19.8420   22.0316   36.1514 H   0  0  0  0  0  0  0  0  0  0  0  0
   20.6598   24.9356   39.2908 H   0  0  0  0  0  0  0  0  0  0  0  0
   19.4923   24.7871   37.9194 H   0  0  0  0  0  0  0  0  0  0  0  0
   21.0929   26.8268   38.0110 H   0  0  0  0  0  0  0  0  0  0  0  0
   22.5428   27.4468   37.2195 H   0  0  0  0  0  0  0  0  0  0  0  0
   22.6972   26.6357   38.8323 H   0  0  0  0  0  0  0  0  0  0  0  0
  1  2  1  0
  2  3  2  0
  2  4  1  0
  4  5  2  0
  5  6  1  0
  6  7  2  0
  7  8  1  0
  8  9  2  0
  9 10  1  0
 10 11  2  0
 11 12  1  0
 12 13  2  0
 13 14  1  0
  1 15  1  0
 15 16  2  0
 16 17  1  0
 17 18  2  0
 18 19  1  0
 19 20  1  0
 20 21  1  0
 21 22  2  0
 21 23  1  0
 23 24  1  0
 24 25  2  0
 25 26  1  0
 20 27  1  0
 13  4  1  0
 25 15  1  0
 12  7  1  0
 24 18  1  0
  1 28  1  0
  8 29  1  0
  9 30  1  0
 10 31  1  0
 11 32  1  0
 14 33  1  0
 14 34  1  0
 17 35  1  0
 19 36  1  0
 19 37  1  0
 23 38  1  0
 23 39  1  0
 26 40  1  0
 26 41  1  0
 26 42  1  0
M  END
$$$$
confid_1
     RDKit          3D

 42 45  0  0  0  0  0  0  0  0999 V2000
   24.4800   26.1000   36.1300 N   0  0  0  0  0  0  0  0  0  0  0  0
   25.2500   26.2500   34.9900 C   0  0  0  0  0  0  0  0  0  0  0  0
   24.7400   25.7600   33.9900 O   0  0  0  0  0  0  0  0  0  0  0  0
   26.5900   26.8900   34.9600 C   0  0  0  0  0  0  0  0  0  0  0  0
   27.0600   27.2400   36.1600 N   0  0  0  0  0  0  0  0  0  0  0  0
   28.3000   27.7100   36.2400 N   0  0  0  0  0  0  0  0  0  0  0  0
   29.0500   27.9600   35.1500 C   0  0  0  0  0  0  0  0  0  0  0  0
   30.3400   28.4900   35.2600 C   0  0  0  0  0  0  0  0  0  0  0  0
   31.1100   28.8200   34.1400 C   0  0  0  0  0  0  0  0  0  0  0  0
   30.5200   28.6700   32.8800 C   0  0  0  0  0  0  0  0  0  0  0  0
   29.2900   28.0200   32.7700 C   0  0  0  0  0  0  0  0  0  0  0  0
   28.5200   27.7100   33.8900 C   0  0  0  0  0  0  0  0  0  0  0  0
   27.2700   27.0800   33.7600 C   0  0  0  0  0  0  0  0  0  0  0  0
   26.7500   26.8800   32.4900 N   0  0  0  0  0  0  0  0  0  0  0  0
   23.0478   25.9248   36.1242 C   0  0  0  0  0  0  0  0  0  0  0  0
   22.3203   26.4391   35.0963 N   0  0  0  0  0  0  0  0  0  0  0  0
   20.9689   26.3664   35.0511 C   0  0  0  0  0  0  0  0  0  0  0  0
   20.2587   25.7929   36.1081 C   0  0  0  0  0  0  0  0  0  0  0  0
   18.7582   25.6801   36.0243 C   0  0  0  0  0  0  0  0  0  0  0  0
   18.1544   25.7721   37.3500 N   0  0  0  0  0  0  0  0  0  0  0  0
   18.8086   25.1947   38.4857 C   0  0  0  0  0  0  0  0  0  0  0  0
   18.2130   25.1309   39.5945 O   0  0  0  0  0  0  0  0  0  0  0  0
   20.1937   24.6311   38.3558 C   0  0  0  0  0  0  0  0  0  0  0  0
   20.9646   25.2592   37.2081 C   0  0  0  0  0  0  0  0  0  0  0  0
   22.3850   25.2695   37.1907 C   0  0  0  0  0  0  0  0  0  0  0  0
   23.1841   24.6063   38.2903 C   0  0  0  0  0  0  0  0  0  0  0  0
   16.5488   26.4358   37.5075 Cl  0  0  0  0  0  0  0  0  0  0  0  0
   24.9522   26.2056   37.0553 H   0  0  0  0  0  0  0  0  0  0  0  0
   30.7580   28.6629   36.2441 H   0  0  0  0  0  0  0  0  0  0  0  0
   32.0983   29.2479   34.2470 H   0  0  0  0  0  0  0  0  0  0  0  0
   31.0669   28.9543   31.9901 H   0  0  0  0  0  0  0  0  0  0  0  0
   28.9258   27.8587   31.7656 H   0  0  0  0  0  0  0  0  0  0  0  0
   27.2969   26.3788   31.7553 H   0  0  0  0  0  0  0  0  0  0  0  0
   25.7672   27.1502   32.2659 H   0  0  0  0  0  0  0  0  0  0  0  0
   20.4476   26.7717   34.1933 H   0  0  0  0  0  0  0  0  0  0  0  0
   18.3447   26.4826   35.3752 H   0  0  0  0  0  0  0  0  0  0  0  0
   18.4976   24.6988   35.5744 H   0  0  0  0  0  0  0  0  0  0  0  0
   20.7197   24.8162   39.3166 H   0  0  0  0  0  0  0  0  0  0  0  0
   20.1228   23.5355   38.1899 H   0  0  0  0  0  0  0  0  0  0  0  0
   22.6637   23.7097   38.6850 H   0  0  0  0  0  0  0  0  0  0  0  0
   24.1604   24.2370   37.9138 H   0  0  0  0  0  0  0  0  0  0  0  0
   23.3556   25.3286   39.1153 H   0  0  0  0  0  0  0  0  0  0  0  0
  1  2  1  0
  2  3  2  0
  2  4  1  0
  4  5  2  0
  5  6  1  0
  6  7  2  0
  7  8  1  0
  8  9  2  0
  9 10  1  0
 10 11  2  0
 11 12  1  0
 12 13  2  0
 13 14  1  0
  1 15  1  0
 15 16  2  0
 16 17  1  0
 17 18  2  0
 18 19  1  0
 19 20  1  0
 20 21  1  0
 21 22  2  0
 21 23  1  0
 23 24  1  0
 24 25  2  0
 25 26  1  0
 20 27  1  0
 13  4  1  0
 25 15  1  0
 12  7  1  0
 24 18  1  0
  1 28  1  0
  8 29  1  0
  9 30  1  0
 10 31  1  0
 11 32  1  0
 14 33  1  0
 14 34  1  0
 17 35  1  0
 19 36  1  0
 19 37  1  0
 23 38  1  0
 23 39  1  0
 26 40  1  0
 26 41  1  0
 26 42  1  0
M  END
$$$$
confid_2
     RDKit          3D

 42 45  0  0  0  0  0  0  0  0999 V2000
   24.4800   26.1000   36.1300 N   0  0  0  0  0  0  0  0  0  0  0  0
   25.2500   26.2500   34.9900 C   0  0  0  0  0  0  0  0  0  0  0  0
   24.7400   25.7600   33.9900 O   0  0  0  0  0  0  0  0  0  0  0  0
   26.5900   26.8900   34.9600 C   0  0  0  0  0  0  0  0  0  0  0  0
   27.0600   27.2400   36.1600 N   0  0  0  0  0  0  0  0  0  0  0  0
   28.3000   27.7100   36.2400 N   0  0  0  0  0  0  0  0  0  0  0  0
   29.0500   27.9600   35.1500 C   0  0  0  0  0  0  0  0  0  0  0  0
   30.3400   28.4900   35.2600 C   0  0  0  0  0  0  0  0  0  0  0  0
   31.1100   28.8200   34.1400 C   0  0  0  0  0  0  0  0  0  0  0  0
   30.5200   28.6700   32.8800 C   0  0  0  0  0  0  0  0  0  0  0  0
   29.2900   28.0200   32.7700 C   0  0  0  0  0  0  0  0  0  0  0  0
   28.5200   27.7100   33.8900 C   0  0  0  0  0  0  0  0  0  0  0  0
   27.2700   27.0800   33.7600 C   0  0  0  0  0  0  0  0  0  0  0  0
   26.7500   26.8800   32.4900 N   0  0  0  0  0  0  0  0  0  0  0  0
   23.4345   25.1189   36.2705 C   0  0  0  0  0  0  0  0  0  0  0  0
   23.6271   23.8808   35.7425 N   0  0  0  0  0  0  0  0  0  0  0  0
   22.7308   22.8770   35.8877 C   0  0  0  0  0  0  0  0  0  0  0  0
   21.5511   23.0844   36.6045 C   0  0  0  0  0  0  0  0  0  0  0  0
   20.6109   21.9291   36.8393 C   0  0  0  0  0  0  0  0  0  0  0  0
   19.2303   22.3928   36.9416 N   0  0  0  0  0  0  0  0  0  0  0  0
   18.9325   23.6393   37.5804 C   0  0  0  0  0  0  0  0  0  0  0  0
   17.7367   23.9631   37.8120 O   0  0  0  0  0  0  0  0  0  0  0  0
   20.0452   24.5499   38.0100 C   0  0  0  0  0  0  0  0  0  0  0  0
   21.2939   24.3551   37.1649 C   0  0  0  0  0  0  0  0  0  0  0  0
   22.2498   25.3945   37.0000 C   0  0  0  0  0  0  0  0  0  0  0  0
   21.9769   26.7746   37.5586 C   0  0  0  0  0  0  0  0  0  0  0  0
   17.9382   21.3366   36.4335 Cl  0  0  0  0  0  0  0  0  0  0  0  0
   24.7439   26.6511   36.9764 H   0  0  0  0  0  0  0  0  0  0  0  0
   30.7580   28.6629   36.2441 H   0  0  0  0  0  0  0  0  0  0  0  0
   32.0983   29.2479   34.2470 H   0  0  0  0  0  0  0  0  0  0  0  0
   31.0669   28.9543   31.9901 H   0  0  0  0  0  0  0  0  0  0  0  0
   28.9258   27.8587   31.7656 H   0  0  0  0  0  0  0  0  0  0  0  0
   27.2969   26.3787   31.7554 H   0  0  0  0  0  0  0  0  0  0  0  0
   25.7673   27.1503   32.2658 H   0  0  0  0  0  0  0  0  0  0  0  0
   22.9511   21.9078   35.4589 H   0  0  0  0  0  0  0  0  0  0  0  0
   20.6907   21.1910   36.0116 H   0  0  0  0  0  0  0  0  0  0  0  0
   20.8948   21.4234   37.7864 H   0  0  0  0  0  0  0  0  0  0  0  0
   19.6698   25.5907   37.9422 H   0  0  0  0  0  0  0  0  0  0  0  0
   20.2935   24.3370   39.0711 H   0  0  0  0  0  0  0  0  0  0  0  0
   21.0521   27.1849   37.1026 H   0  0  0  0  0  0  0  0  0  0  0  0
   21.8530   26.7162   38.6604 H   0  0  0  0  0  0  0  0  0  0  0  0
   22.7736   27.5101   37.3422 H   0  0  0  0  0  0  0  0  0  0  0  0
  1  2  1  0
  2  3  2  0
  2  4  1  0
  4  5  2  0
  5  6  1  0
  6  7  2  0
  7  8  1  0
  8  9  2  0
  9 10  1  0
 10 11  2  0
 11 12  1  0
 12 13  2  0
 13 14  1  0
  1 15  1  0
 15 16  2  0
 16 17  1  0
 17 18  2  0
 18 19  1  0
 19 20  1  0
 20 21  1  0
 21 22  2  0
 21 23  1  0
 23 24  1  0
 24 25  2  0
 25 26  1  0
 20 27  1  0
 13  4  1  0
 25 15  1  0
 12  7  1  0
 24 18  1  0
  1 28  1  0
  8 29  1  0
  9 30  1  0
 10 31  1  0
 11 32  1  0
 14 33  1  0
 14 34  1  0
 17 35  1  0
 19 36  1  0
 19 37  1  0
 23 38  1  0
 23 39  1  0
 26 40  1  0
 26 41  1  0
 26 42  1  0
M  END
$$$$
