confid_0
     RDKit          3D

 56 59  0  0  0  0  0  0  0  0999 V2000
   24.6900   26.1200   35.5300 N   0  0  0  0  0  0  0  0  0  0  0  0
   25.6600   25.6700   34.6600 C   0  0  0  0  0  0  0  0  0  0  0  0
   25.2400   25.0100   33.7200 O   0  0  0  0  0  0  0  0  0  0  0  0
   27.0300   26.2200   34.8800 C   0  0  0  0  0  0  0  0  0  0  0  0
   27.3500   26.7300   36.0700 N   0  0  0  0  0  0  0  0  0  0  0  0
   28.5700   27.1800   36.3300 N   0  0  0  0  0  0  0  0  0  0  0  0
   29.5300   27.1100   35.3900 C   0  0  0  0  0  0  0  0  0  0  0  0
   30.8300   27.5700   35.6500 C   0  0  0  0  0  0  0  0  0  0  0  0
   31.8500   27.5400   34.6900 C   0  0  0  0  0  0  0  0  0  0  0  0
   31.5100   27.1200   33.4000 C   0  0  0  0  0  0  0  0  0  0  0  0
   30.2200   26.6300   33.1100 C   0  0  0  0  0  0  0  0  0  0  0  0
   29.2400   26.6600   34.1000 C   0  0  0  0  0  0  0  0  0  0  0  0
   27.9300   26.2600   33.8100 C   0  0  0  0  0  0  0  0  0  0  0  0
   27.5200   25.7100   32.6100 N   0  0  0  0  0  0  0  0  0  0  0  0
   23.2614   25.9906   35.3641 C   0  0  0  0  0  0  0  0  0  0  0  0
   22.5185   25.9183   36.4292 N   0  0  0  0  0  0  0  0  0  0  0  0
   21.0917   25.7823   36.3898 C   0  0  0  0  0  0  0  0  0  0  0  0
   20.4003   25.9628   35.2515 C   0  0  0  0  0  0  0  0  0  0  0  0
   18.8946   25.7564   35.3071 C   0  0  0  0  0  0  0  0  0  0  0  0
   18.2071   26.0394   34.0245 N   0  0  0  0  0  0  0  0  0  0  0  0
   16.7642   26.2299   34.2851 C   0  0  0  0  0  0  0  0  0  0  0  0
   18.4425   24.9528   33.0277 C   0  0  0  0  0  0  0  0  0  0  0  0
   17.7449   25.2604   31.6850 C   0  0  0  0  0  0  0  0  0  0  0  0
   19.9531   24.7837   32.7733 C   0  0  0  0  0  0  0  0  0  0  0  0
   20.5585   26.0639   32.7527 O   0  0  0  0  0  0  0  0  0  0  0  0
   21.1613   26.4319   33.9920 C   0  0  0  0  0  0  0  0  0  0  0  0
   21.2176   27.9776   34.0193 C   0  0  0  0  0  0  0  0  0  0  0  0
   19.9090   28.5097   33.9405 O   0  0  0  0  0  0  0  0  0  0  0  0
   19.9751   29.9185   33.9290 C   0  0  0  0  0  0  0  0  0  0  0  0
   22.6143   25.8751   34.0021 C   0  0  0  0  0  0  0  0  0  0  0  0
   24.9822   26.5014   36.4584 H   0  0  0  0  0  0  0  0  0  0  0  0
   31.0673   27.9414   36.6394 H   0  0  0  0  0  0  0  0  0  0  0  0
   32.8486   27.8872   34.9213 H   0  0  0  0  0  0  0  0  0  0  0  0
   32.2655   27.1211   32.6250 H   0  0  0  0  0  0  0  0  0  0  0  0
   30.0111   26.2789   32.1078 H   0  0  0  0  0  0  0  0  0  0  0  0
   27.6968   26.2231   31.7183 H   0  0  0  0  0  0  0  0  0  0  0  0
   27.3418   24.6830   32.5417 H   0  0  0  0  0  0  0  0  0  0  0  0
   20.5754   25.5233   37.3064 H   0  0  0  0  0  0  0  0  0  0  0  0
   18.5180   26.4400   36.1031 H   0  0  0  0  0  0  0  0  0  0  0  0
   18.6769   24.7142   35.6392 H   0  0  0  0  0  0  0  0  0  0  0  0
   16.5936   26.9425   35.1218 H   0  0  0  0  0  0  0  0  0  0  0  0
   16.2670   25.2647   34.5309 H   0  0  0  0  0  0  0  0  0  0  0  0
   16.2721   26.6973   33.4083 H   0  0  0  0  0  0  0  0  0  0  0  0
   18.0423   23.9837   33.4068 H   0  0  0  0  0  0  0  0  0  0  0  0
   16.6422   25.1641   31.7821 H   0  0  0  0  0  0  0  0  0  0  0  0
   18.0489   24.5323   30.9022 H   0  0  0  0  0  0  0  0  0  0  0  0
   17.9995   26.2881   31.3424 H   0  0  0  0  0  0  0  0  0  0  0  0
   20.1416   24.2894   31.7960 H   0  0  0  0  0  0  0  0  0  0  0  0
   20.3979   24.0897   33.5247 H   0  0  0  0  0  0  0  0  0  0  0  0
   21.8267   28.3281   33.1517 H   0  0  0  0  0  0  0  0  0  0  0  0
   21.7154   28.3165   34.9587 H   0  0  0  0  0  0  0  0  0  0  0  0
   20.5332   30.2905   33.0409 H   0  0  0  0  0  0  0  0  0  0  0  0
   20.4270   30.3078   34.8683 H   0  0  0  0  0  0  0  0  0  0  0  0
   18.9431   30.3218   33.8664 H   0  0  0  0  0  0  0  0  0  0  0  0
   23.2228   26.4121   33.2416 H   0  0  0  0  0  0  0  0  0  0  0  0
   22.6047   24.7988   33.7300 H   0  0  0  0  0  0  0  0  0  0  0  0
  1  2  1  0
  2  3  2  0
  2  4  1  0
  4  5  2  0
  5  6  1  0
  6  7  2  0
  7  8  1  0
  8  9  2  0
  9 10  1  0
 10 11  2  0
 11 12  1  0
 12 13  2  0
 13 14  1  0
  1 15  1  0
 15 16  2  0
 16 17  1  0
 17 18  2  0
 18 19  1  0
 19 20  1  0
 20 21  1  0
 20 22  1  0
 22 23  1  0
 22 24  1  0
 24 25  1  0
 25 26  1  0
 26 27  1  0
 27 28  1  0
 28 29  1  0
 26 30  1  0
 13  4  1  0
 30 15  1  0
 12  7  1  0
 26 18  1  0
  1 31  1  0
  8 32  1  0
  9 33  1  0
 10 34  1  0
 11 35  1  0
 14 36  1  0
 14 37  1  0
 17 38  1  0
 19 39  1  0
 19 40  1  0
 21 41  1  0
 21 42  1  0
 21 43  1  0
 22 44  1  0
 23 45  1  0
 23 46  1  0
 23 47  1  0
 24 48  1  0
 24 49  1  0
 27 50  1  0
 27 51  1  0
 29 52  1  0
 29 53  1  0
 29 54  1  0
 30 55  1  0
 30 56  1  0
M  END
$$$$
