confid_0
     RDKit          3D

 41 44  0  0  0  0  0  0  0  0999 V2000
   24.2000   26.2400   35.6900 N   0  0  0  0  0  0  0  0  0  0  0  0
   24.8500   26.2800   34.4800 C   0  0  0  0  0  0  0  0  0  0  0  0
   24.3100   25.7400   33.5400 O   0  0  0  0  0  0  0  0  0  0  0  0
   26.1800   26.9700   34.4700 C   0  0  0  0  0  0  0  0  0  0  0  0
   26.6500   27.6000   35.5500 N   0  0  0  0  0  0  0  0  0  0  0  0
   27.7900   28.2700   35.6200 N   0  0  0  0  0  0  0  0  0  0  0  0
   28.5400   28.3000   34.5100 C   0  0  0  0  0  0  0  0  0  0  0  0
   29.7700   28.9400   34.5600 C   0  0  0  0  0  0  0  0  0  0  0  0
   30.7000   28.8900   33.5000 C   0  0  0  0  0  0  0  0  0  0  0  0
   30.3700   28.1400   32.3700 C   0  0  0  0  0  0  0  0  0  0  0  0
   29.1200   27.5200   32.2800 C   0  0  0  0  0  0  0  0  0  0  0  0
   28.2100   27.6100   33.3300 C   0  0  0  0  0  0  0  0  0  0  0  0
   26.9700   26.9700   33.3100 C   0  0  0  0  0  0  0  0  0  0  0  0
   26.5300   26.2400   32.2200 N   0  0  0  0  0  0  0  0  0  0  0  0
   30.1428   29.6670   35.7437 N   0  0  0  0  0  0  0  0  0  0  0  0
   31.3389   29.2750   36.5111 C   0  0  0  0  0  0  0  0  0  0  0  0
   31.1001   29.3972   38.0380 C   0  0  0  0  0  0  0  0  0  0  0  0
   30.5126   30.7007   38.3988 N   0  0  0  0  0  0  0  0  0  0  0  0
   30.7414   31.2950   39.7150 C   0  0  0  0  0  0  0  0  0  0  0  0
   29.5948   31.2958   37.4740 C   0  0  0  0  0  0  0  0  0  0  0  0
   28.8455   32.4480   37.5968 C   0  0  0  0  0  0  0  0  0  0  0  0
   28.2203   32.6027   36.3653 C   0  0  0  0  0  0  0  0  0  0  0  0
   28.5687   31.6022   35.5251 N   0  0  0  0  0  0  0  0  0  0  0  0
   29.4060   30.8049   36.2201 C   0  0  0  0  0  0  0  0  0  0  0  0
   28.1121   31.5120   33.8455 Cl  0  0  0  0  0  0  0  0  0  0  0  0
   23.2682   25.7736   35.7694 H   0  0  0  0  0  0  0  0  0  0  0  0
   24.5987   26.6541   36.5616 H   0  0  0  0  0  0  0  0  0  0  0  0
   31.6566   29.3928   33.5664 H   0  0  0  0  0  0  0  0  0  0  0  0
   31.0731   28.0611   31.5509 H   0  0  0  0  0  0  0  0  0  0  0  0
   28.8951   26.9548   31.3854 H   0  0  0  0  0  0  0  0  0  0  0  0
   26.3242   25.2204   32.3141 H   0  0  0  0  0  0  0  0  0  0  0  0
   26.6263   26.6232   31.2536 H   0  0  0  0  0  0  0  0  0  0  0  0
   32.1847   29.9346   36.2204 H   0  0  0  0  0  0  0  0  0  0  0  0
   31.6229   28.2257   36.2763 H   0  0  0  0  0  0  0  0  0  0  0  0
   32.0685   29.2502   38.5633 H   0  0  0  0  0  0  0  0  0  0  0  0
   30.4057   28.5913   38.3594 H   0  0  0  0  0  0  0  0  0  0  0  0
   29.7765   31.3933   40.2557 H   0  0  0  0  0  0  0  0  0  0  0  0
   31.1999   32.2991   39.5958 H   0  0  0  0  0  0  0  0  0  0  0  0
   31.4218   30.6644   40.3255 H   0  0  0  0  0  0  0  0  0  0  0  0
   28.7829   33.1095   38.4503 H   0  0  0  0  0  0  0  0  0  0  0  0
   27.5745   33.4265   36.0910 H   0  0  0  0  0  0  0  0  0  0  0  0
  1  2  1  0
  2  3  2  0
  2  4  1  0
  4  5  2  0
  5  6  1  0
  6  7  2  0
  7  8  1  0
  8  9  2  0
  9 10  1  0
 10 11  2  0
 11 12  1  0
 12 13  2  0
 13 14  1  0
  8 15  1  0
 15 16  1  0
 16 17  1  0
 17 18  1  0
 18 19  1  0
 18 20  1  0
 20 21  1  0
 21 22  2  0
 22 23  1  0
 23 24  1  0
 23 25  1  0
 13  4  1  0
 24 15  1  0
 12  7  1  0
 24 20  2  0
  1 26  1  0
  1 27  1  0
  9 28  1  0
 10 29  1  0
 11 30  1  0
 14 31  1  0
 14 32  1  0
 16 33  1  0
 16 34  1  0
 17 35  1  0
 17 36  1  0
 19 37  1  0
 19 38  1  0
 19 39  1  0
 21 40  1  0
 22 41  1  0
M  END
$$$$
confid_1
     RDKit          3D

 41 44  0  0  0  0  0  0  0  0999 V2000
   24.2000   26.2400   35.6900 N   0  0  0  0  0  0  0  0  0  0  0  0
   24.8500   26.2800   34.4800 C   0  0  0  0  0  0  0  0  0  0  0  0
   24.3100   25.7400   33.5400 O   0  0  0  0  0  0  0  0  0  0  0  0
   26.1800   26.9700   34.4700 C   0  0  0  0  0  0  0  0  0  0  0  0
   26.6500   27.6000   35.5500 N   0  0  0  0  0  0  0  0  0  0  0  0
   27.7900   28.2700   35.6200 N   0  0  0  0  0  0  0  0  0  0  0  0
   28.5400   28.3000   34.5100 C   0  0  0  0  0  0  0  0  0  0  0  0
   29.7700   28.9400   34.5600 C   0  0  0  0  0  0  0  0  0  0  0  0
   30.7000   28.8900   33.5000 C   0  0  0  0  0  0  0  0  0  0  0  0
   30.3700   28.1400   32.3700 C   0  0  0  0  0  0  0  0  0  0  0  0
   29.1200   27.5200   32.2800 C   0  0  0  0  0  0  0  0  0  0  0  0
   28.2100   27.6100   33.3300 C   0  0  0  0  0  0  0  0  0  0  0  0
   26.9700   26.9700   33.3100 C   0  0  0  0  0  0  0  0  0  0  0  0
   26.5300   26.2400   32.2200 N   0  0  0  0  0  0  0  0  0  0  0  0
   30.1516   29.6615   35.7434 N   0  0  0  0  0  0  0  0  0  0  0  0
   30.4283   28.9460   37.0034 C   0  0  0  0  0  0  0  0  0  0  0  0
   31.7138   29.4751   37.6899 C   0  0  0  0  0  0  0  0  0  0  0  0
   31.7193   30.9471   37.7807 N   0  0  0  0  0  0  0  0  0  0  0  0
   32.4290   31.6375   38.8565 C   0  0  0  0  0  0  0  0  0  0  0  0
   31.1285   31.6800   36.7014 C   0  0  0  0  0  0  0  0  0  0  0  0
   31.1041   33.0398   36.4674 C   0  0  0  0  0  0  0  0  0  0  0  0
   30.3361   33.1925   35.3185 C   0  0  0  0  0  0  0  0  0  0  0  0
   29.9072   31.9912   34.8698 N   0  0  0  0  0  0  0  0  0  0  0  0
   30.4039   31.0743   35.7239 C   0  0  0  0  0  0  0  0  0  0  0  0
   28.8185   31.7549   33.5297 Cl  0  0  0  0  0  0  0  0  0  0  0  0
   23.2681   25.7737   35.7694 H   0  0  0  0  0  0  0  0  0  0  0  0
   24.5989   26.6538   36.5617 H   0  0  0  0  0  0  0  0  0  0  0  0
   31.6594   29.3872   33.5705 H   0  0  0  0  0  0  0  0  0  0  0  0
   31.0738   28.0599   31.5516 H   0  0  0  0  0  0  0  0  0  0  0  0
   28.8952   26.9545   31.3856 H   0  0  0  0  0  0  0  0  0  0  0  0
   26.6264   26.6231   31.2536 H   0  0  0  0  0  0  0  0  0  0  0  0
   26.3242   25.2204   32.3141 H   0  0  0  0  0  0  0  0  0  0  0  0
   30.5430   27.8559   36.8147 H   0  0  0  0  0  0  0  0  0  0  0  0
   29.5682   29.0872   37.6927 H   0  0  0  0  0  0  0  0  0  0  0  0
   32.5970   29.1504   37.0988 H   0  0  0  0  0  0  0  0  0  0  0  0
   31.7896   29.0236   38.7026 H   0  0  0  0  0  0  0  0  0  0  0  0
   32.8813   30.9130   39.5664 H   0  0  0  0  0  0  0  0  0  0  0  0
   31.7207   32.2856   39.4141 H   0  0  0  0  0  0  0  0  0  0  0  0
   33.2414   32.2627   38.4300 H   0  0  0  0  0  0  0  0  0  0  0  0
   31.5592   33.8222   37.0598 H   0  0  0  0  0  0  0  0  0  0  0  0
   30.0821   34.1376   34.8566 H   0  0  0  0  0  0  0  0  0  0  0  0
  1  2  1  0
  2  3  2  0
  2  4  1  0
  4  5  2  0
  5  6  1  0
  6  7  2  0
  7  8  1  0
  8  9  2  0
  9 10  1  0
 10 11  2  0
 11 12  1  0
 12 13  2  0
 13 14  1  0
  8 15  1  0
 15 16  1  0
 16 17  1  0
 17 18  1  0
 18 19  1  0
 18 20  1  0
 20 21  1  0
 21 22  2  0
 22 23  1  0
 23 24  1  0
 23 25  1  0
 13  4  1  0
 24 15  1  0
 12  7  1  0
 24 20  2  0
  1 26  1  0
  1 27  1  0
  9 28  1  0
 10 29  1  0
 11 30  1  0
 14 31  1  0
 14 32  1  0
 16 33  1  0
 16 34  1  0
 17 35  1  0
 17 36  1  0
 19 37  1  0
 19 38  1  0
 19 39  1  0
 21 40  1  0
 22 41  1  0
M  END
$$$$
confid_2
     RDKit          3D

 41 44  0  0  0  0  0  0  0  0999 V2000
   24.2000   26.2400   35.6900 N   0  0  0  0  0  0  0  0  0  0  0  0
   24.8500   26.2800   34.4800 C   0  0  0  0  0  0  0  0  0  0  0  0
   24.3100   25.7400   33.5400 O   0  0  0  0  0  0  0  0  0  0  0  0
   26.1800   26.9700   34.4700 C   0  0  0  0  0  0  0  0  0  0  0  0
   26.6500   27.6000   35.5500 N   0  0  0  0  0  0  0  0  0  0  0  0
   27.7900   28.2700   35.6200 N   0  0  0  0  0  0  0  0  0  0  0  0
   28.5400   28.3000   34.5100 C   0  0  0  0  0  0  0  0  0  0  0  0
   29.7700   28.9400   34.5600 C   0  0  0  0  0  0  0  0  0  0  0  0
   30.7000   28.8900   33.5000 C   0  0  0  0  0  0  0  0  0  0  0  0
   30.3700   28.1400   32.3700 C   0  0  0  0  0  0  0  0  0  0  0  0
   29.1200   27.5200   32.2800 C   0  0  0  0  0  0  0  0  0  0  0  0
   28.2100   27.6100   33.3300 C   0  0  0  0  0  0  0  0  0  0  0  0
   26.9700   26.9700   33.3100 C   0  0  0  0  0  0  0  0  0  0  0  0
   26.5300   26.2400   32.2200 N   0  0  0  0  0  0  0  0  0  0  0  0
   30.1359   29.6849   35.7346 N   0  0  0  0  0  0  0  0  0  0  0  0
   29.3703   30.8812   36.1327 C   0  0  0  0  0  0  0  0  0  0  0  0
   30.3077   32.0480   36.5370 C   0  0  0  0  0  0  0  0  0  0  0  0
   31.3442   31.6116   37.4912 N   0  0  0  0  0  0  0  0  0  0  0  0
   31.9197   32.5411   38.4620 C   0  0  0  0  0  0  0  0  0  0  0  0
   31.8665   30.2861   37.3439 C   0  0  0  0  0  0  0  0  0  0  0  0
   32.8877   29.6602   38.0295 C   0  0  0  0  0  0  0  0  0  0  0  0
   32.8944   28.3550   37.5510 C   0  0  0  0  0  0  0  0  0  0  0  0
   31.9262   28.1837   36.6229 N   0  0  0  0  0  0  0  0  0  0  0  0
   31.3096   29.3763   36.5012 C   0  0  0  0  0  0  0  0  0  0  0  0
   31.5037   26.6602   35.8896 Cl  0  0  0  0  0  0  0  0  0  0  0  0
   24.5989   26.6538   36.5617 H   0  0  0  0  0  0  0  0  0  0  0  0
   23.2681   25.7737   35.7694 H   0  0  0  0  0  0  0  0  0  0  0  0
   31.6561   29.3940   33.5664 H   0  0  0  0  0  0  0  0  0  0  0  0
   31.0733   28.0609   31.5511 H   0  0  0  0  0  0  0  0  0  0  0  0
   28.8953   26.9545   31.3856 H   0  0  0  0  0  0  0  0  0  0  0  0
   26.3242   25.2203   32.3142 H   0  0  0  0  0  0  0  0  0  0  0  0
   26.6264   26.6231   31.2536 H   0  0  0  0  0  0  0  0  0  0  0  0
   28.7229   30.6219   36.9979 H   0  0  0  0  0  0  0  0  0  0  0  0
   28.7139   31.2182   35.3004 H   0  0  0  0  0  0  0  0  0  0  0  0
   29.6937   32.8632   36.9773 H   0  0  0  0  0  0  0  0  0  0  0  0
   30.8050   32.4427   35.6250 H   0  0  0  0  0  0  0  0  0  0  0  0
   31.4422   33.5411   38.3899 H   0  0  0  0  0  0  0  0  0  0  0  0
   31.7675   32.1485   39.4893 H   0  0  0  0  0  0  0  0  0  0  0  0
   33.0073   32.6583   38.2708 H   0  0  0  0  0  0  0  0  0  0  0  0
   33.5228   30.0788   38.7987 H   0  0  0  0  0  0  0  0  0  0  0  0
   33.5497   27.5658   37.8954 H   0  0  0  0  0  0  0  0  0  0  0  0
  1  2  1  0
  2  3  2  0
  2  4  1  0
  4  5  2  0
  5  6  1  0
  6  7  2  0
  7  8  1  0
  8  9  2  0
  9 10  1  0
 10 11  2  0
 11 12  1  0
 12 13  2  0
 13 14  1  0
  8 15  1  0
 15 16  1  0
 16 17  1  0
 17 18  1  0
 18 19  1  0
 18 20  1  0
 20 21  1  0
 21 22  2  0
 22 23  1  0
 23 24  1  0
 23 25  1  0
 13  4  1  0
 24 15  1  0
 12  7  1  0
 24 20  2  0
  1 26  1  0
  1 27  1  0
  9 28  1  0
 10 29  1  0
 11 30  1  0
 14 31  1  0
 14 32  1  0
 16 33  1  0
 16 34  1  0
 17 35  1  0
 17 36  1  0
 19 37  1  0
 19 38  1  0
 19 39  1  0
 21 40  1  0
 22 41  1  0
M  END
$$$$
confid_3
     RDKit          3D

 41 44  0  0  0  0  0  0  0  0999 V2000
   24.2000   26.2400   35.6900 N   0  0  0  0  0  0  0  0  0  0  0  0
   24.8500   26.2800   34.4800 C   0  0  0  0  0  0  0  0  0  0  0  0
   24.3100   25.7400   33.5400 O   0  0  0  0  0  0  0  0  0  0  0  0
   26.1800   26.9700   34.4700 C   0  0  0  0  0  0  0  0  0  0  0  0
   26.6500   27.6000   35.5500 N   0  0  0  0  0  0  0  0  0  0  0  0
   27.7900   28.2700   35.6200 N   0  0  0  0  0  0  0  0  0  0  0  0
   28.5400   28.3000   34.5100 C   0  0  0  0  0  0  0  0  0  0  0  0
   29.7700   28.9400   34.5600 C   0  0  0  0  0  0  0  0  0  0  0  0
   30.7000   28.8900   33.5000 C   0  0  0  0  0  0  0  0  0  0  0  0
   30.3700   28.1400   32.3700 C   0  0  0  0  0  0  0  0  0  0  0  0
   29.1200   27.5200   32.2800 C   0  0  0  0  0  0  0  0  0  0  0  0
   28.2100   27.6100   33.3300 C   0  0  0  0  0  0  0  0  0  0  0  0
   26.9700   26.9700   33.3100 C   0  0  0  0  0  0  0  0  0  0  0  0
   26.5300   26.2400   32.2200 N   0  0  0  0  0  0  0  0  0  0  0  0
   30.1418   29.6702   35.7403 N   0  0  0  0  0  0  0  0  0  0  0  0
   30.3377   31.1293   35.6721 C   0  0  0  0  0  0  0  0  0  0  0  0
   29.8623   31.8295   36.9709 C   0  0  0  0  0  0  0  0  0  0  0  0
   30.3975   31.1709   38.1768 N   0  0  0  0  0  0  0  0  0  0  0  0
   30.6147   31.9194   39.4138 C   0  0  0  0  0  0  0  0  0  0  0  0
   30.5576   29.7480   38.1418 C   0  0  0  0  0  0  0  0  0  0  0  0
   30.9296   28.8797   39.1476 C   0  0  0  0  0  0  0  0  0  0  0  0
   31.0073   27.6343   38.5361 C   0  0  0  0  0  0  0  0  0  0  0  0
   30.7044   27.7287   37.2217 N   0  0  0  0  0  0  0  0  0  0  0  0
   30.4255   29.0294   36.9949 C   0  0  0  0  0  0  0  0  0  0  0  0
   30.8042   26.4113   36.0849 Cl  0  0  0  0  0  0  0  0  0  0  0  0
   23.2680   25.7738   35.7694 H   0  0  0  0  0  0  0  0  0  0  0  0
   24.5990   26.6535   36.5618 H   0  0  0  0  0  0  0  0  0  0  0  0
   31.6595   29.3868   33.5704 H   0  0  0  0  0  0  0  0  0  0  0  0
   31.0740   28.0593   31.5519 H   0  0  0  0  0  0  0  0  0  0  0  0
   28.8954   26.9541   31.3858 H   0  0  0  0  0  0  0  0  0  0  0  0
   26.6265   26.6230   31.2536 H   0  0  0  0  0  0  0  0  0  0  0  0
   26.3243   25.2203   32.3142 H   0  0  0  0  0  0  0  0  0  0  0  0
   29.7771   31.5538   34.8105 H   0  0  0  0  0  0  0  0  0  0  0  0
   31.4179   31.3403   35.5186 H   0  0  0  0  0  0  0  0  0  0  0  0
   30.1790   32.8944   36.9382 H   0  0  0  0  0  0  0  0  0  0  0  0
   28.7522   31.7992   37.0105 H   0  0  0  0  0  0  0  0  0  0  0  0
   29.9629   31.5154   40.2169 H   0  0  0  0  0  0  0  0  0  0  0  0
   30.3753   32.9953   39.2774 H   0  0  0  0  0  0  0  0  0  0  0  0
   31.6773   31.8288   39.7224 H   0  0  0  0  0  0  0  0  0  0  0  0
   31.1436   29.1161   40.1812 H   0  0  0  0  0  0  0  0  0  0  0  0
   31.3012   26.7149   39.0253 H   0  0  0  0  0  0  0  0  0  0  0  0
  1  2  1  0
  2  3  2  0
  2  4  1  0
  4  5  2  0
  5  6  1  0
  6  7  2  0
  7  8  1  0
  8  9  2  0
  9 10  1  0
 10 11  2  0
 11 12  1  0
 12 13  2  0
 13 14  1  0
  8 15  1  0
 15 16  1  0
 16 17  1  0
 17 18  1  0
 18 19  1  0
 18 20  1  0
 20 21  1  0
 21 22  2  0
 22 23  1  0
 23 24  1  0
 23 25  1  0
 13  4  1  0
 24 15  1  0
 12  7  1  0
 24 20  2  0
  1 26  1  0
  1 27  1  0
  9 28  1  0
 10 29  1  0
 11 30  1  0
 14 31  1  0
 14 32  1  0
 16 33  1  0
 16 34  1  0
 17 35  1  0
 17 36  1  0
 19 37  1  0
 19 38  1  0
 19 39  1  0
 21 40  1  0
 22 41  1  0
M  END
$$$$
