confid_0
     RDKit          3D

 46 50  0  0  0  0  0  0  0  0999 V2000
   24.5500   26.3900   36.2500 N   0  0  0  0  0  0  0  0  0  0  0  0
   25.6000   26.1300   35.4000 C   0  0  0  0  0  0  0  0  0  0  0  0
   25.4300   25.4300   34.4200 O   0  0  0  0  0  0  0  0  0  0  0  0
   26.9800   26.6300   35.7100 C   0  0  0  0  0  0  0  0  0  0  0  0
   27.3200   26.8200   36.9800 N   0  0  0  0  0  0  0  0  0  0  0  0
   28.4700   27.4000   37.3100 N   0  0  0  0  0  0  0  0  0  0  0  0
   29.4000   27.6300   36.3700 C   0  0  0  0  0  0  0  0  0  0  0  0
   30.6600   28.0500   36.8000 C   0  0  0  0  0  0  0  0  0  0  0  0
   31.5700   28.3600   35.7800 C   0  0  0  0  0  0  0  0  0  0  0  0
   31.3700   28.1000   34.4300 C   0  0  0  0  0  0  0  0  0  0  0  0
   30.1200   27.5900   34.0500 C   0  0  0  0  0  0  0  0  0  0  0  0
   29.1500   27.3400   35.0300 C   0  0  0  0  0  0  0  0  0  0  0  0
   27.8800   26.8900   34.6600 C   0  0  0  0  0  0  0  0  0  0  0  0
   27.4800   26.6100   33.3700 N   0  0  0  0  0  0  0  0  0  0  0  0
   23.1761   26.0720   35.9506 C   0  0  0  0  0  0  0  0  0  0  0  0
   22.7719   25.9948   34.6431 N   0  0  0  0  0  0  0  0  0  0  0  0
   21.4801   25.7626   34.2820 C   0  0  0  0  0  0  0  0  0  0  0  0
   20.5236   25.6187   35.2776 C   0  0  0  0  0  0  0  0  0  0  0  0
   19.0471   25.4112   35.1122 C   0  0  0  0  0  0  0  0  0  0  0  0
   18.5624   25.3388   36.4926 N   0  0  0  0  0  0  0  0  0  0  0  0
   19.6642   25.5530   37.3696 C   0  0  0  0  0  0  0  0  0  0  0  0
   19.5536   25.6609   38.6196 O   0  0  0  0  0  0  0  0  0  0  0  0
   20.8878   25.6951   36.6029 C   0  0  0  0  0  0  0  0  0  0  0  0
   22.2236   25.8927   36.9917 C   0  0  0  0  0  0  0  0  0  0  0  0
   22.6156   25.9343   38.4457 C   0  0  0  0  0  0  0  0  0  0  0  0
   17.1608   25.4621   36.8831 C   0  0  0  0  0  0  0  0  0  0  0  0
   16.2592   24.3874   36.2986 C   0  0  0  0  0  0  0  0  0  0  0  0
   16.6748   24.3202   37.7592 C   0  0  0  0  0  0  0  0  0  0  0  0
   24.7534   26.9013   37.1375 H   0  0  0  0  0  0  0  0  0  0  0  0
   30.8876   28.2364   37.8426 H   0  0  0  0  0  0  0  0  0  0  0  0
   32.5286   28.7682   36.0736 H   0  0  0  0  0  0  0  0  0  0  0  0
   32.1359   28.3141   33.6957 H   0  0  0  0  0  0  0  0  0  0  0  0
   29.9365   27.3921   33.0016 H   0  0  0  0  0  0  0  0  0  0  0  0
   27.4173   25.6173   33.0516 H   0  0  0  0  0  0  0  0  0  0  0  0
   27.5825   27.3393   32.6300 H   0  0  0  0  0  0  0  0  0  0  0  0
   21.2058   25.7125   33.2368 H   0  0  0  0  0  0  0  0  0  0  0  0
   18.5929   26.2781   34.5864 H   0  0  0  0  0  0  0  0  0  0  0  0
   18.8412   24.4611   34.5761 H   0  0  0  0  0  0  0  0  0  0  0  0
   21.9562   25.2869   39.0572 H   0  0  0  0  0  0  0  0  0  0  0  0
   22.5584   26.9781   38.8182 H   0  0  0  0  0  0  0  0  0  0  0  0
   23.6434   25.5430   38.5928 H   0  0  0  0  0  0  0  0  0  0  0  0
   16.7329   26.4707   37.0637 H   0  0  0  0  0  0  0  0  0  0  0  0
   16.7537   23.6246   35.6604 H   0  0  0  0  0  0  0  0  0  0  0  0
   15.2060   24.7038   36.1455 H   0  0  0  0  0  0  0  0  0  0  0  0
   15.8710   24.6002   38.4722 H   0  0  0  0  0  0  0  0  0  0  0  0
   17.4249   23.5305   37.9802 H   0  0  0  0  0  0  0  0  0  0  0  0
  1  2  1  0
  2  3  2  0
  2  4  1  0
  4  5  2  0
  5  6  1  0
  6  7  2  0
  7  8  1  0
  8  9  2  0
  9 10  1  0
 10 11  2  0
 11 12  1  0
 12 13  2  0
 13 14  1  0
  1 15  1  0
 15 16  2  0
 16 17  1  0
 17 18  2  0
 18 19  1  0
 19 20  1  0
 20 21  1  0
 21 22  2  0
 21 23  1  0
 23 24  2  0
 24 25  1  0
 20 26  1  0
 26 27  1  0
 27 28  1  0
 13  4  1  0
 24 15  1  0
 28 26  1  0
 12  7  1  0
 23 18  1  0
  1 29  1  0
  8 30  1  0
  9 31  1  0
 10 32  1  0
 11 33  1  0
 14 34  1  0
 14 35  1  0
 17 36  1  0
 19 37  1  0
 19 38  1  0
 25 39  1  0
 25 40  1  0
 25 41  1  0
 26 42  1  0
 27 43  1  0
 27 44  1  0
 28 45  1  0
 28 46  1  0
M  END
$$$$
confid_1
     RDKit          3D

 46 50  0  0  0  0  0  0  0  0999 V2000
   24.5500   26.3900   36.2500 N   0  0  0  0  0  0  0  0  0  0  0  0
   25.6000   26.1300   35.4000 C   0  0  0  0  0  0  0  0  0  0  0  0
   25.4300   25.4300   34.4200 O   0  0  0  0  0  0  0  0  0  0  0  0
   26.9800   26.6300   35.7100 C   0  0  0  0  0  0  0  0  0  0  0  0
   27.3200   26.8200   36.9800 N   0  0  0  0  0  0  0  0  0  0  0  0
   28.4700   27.4000   37.3100 N   0  0  0  0  0  0  0  0  0  0  0  0
   29.4000   27.6300   36.3700 C   0  0  0  0  0  0  0  0  0  0  0  0
   30.6600   28.0500   36.8000 C   0  0  0  0  0  0  0  0  0  0  0  0
   31.5700   28.3600   35.7800 C   0  0  0  0  0  0  0  0  0  0  0  0
   31.3700   28.1000   34.4300 C   0  0  0  0  0  0  0  0  0  0  0  0
   30.1200   27.5900   34.0500 C   0  0  0  0  0  0  0  0  0  0  0  0
   29.1500   27.3400   35.0300 C   0  0  0  0  0  0  0  0  0  0  0  0
   27.8800   26.8900   34.6600 C   0  0  0  0  0  0  0  0  0  0  0  0
   27.4800   26.6100   33.3700 N   0  0  0  0  0  0  0  0  0  0  0  0
   23.2761   25.7188   36.1832 C   0  0  0  0  0  0  0  0  0  0  0  0
   23.2127   24.4461   35.6785 N   0  0  0  0  0  0  0  0  0  0  0  0
   22.0602   23.7230   35.6440 C   0  0  0  0  0  0  0  0  0  0  0  0
   20.9024   24.2854   36.1640 C   0  0  0  0  0  0  0  0  0  0  0  0
   19.5450   23.6602   36.2676 C   0  0  0  0  0  0  0  0  0  0  0  0
   18.7373   24.6918   36.9223 N   0  0  0  0  0  0  0  0  0  0  0  0
   19.5840   25.8225   37.1750 C   0  0  0  0  0  0  0  0  0  0  0  0
   19.2229   26.8686   37.7751 O   0  0  0  0  0  0  0  0  0  0  0  0
   20.9241   25.5577   36.6840 C   0  0  0  0  0  0  0  0  0  0  0  0
   22.0961   26.3346   36.6853 C   0  0  0  0  0  0  0  0  0  0  0  0
   22.0979   27.7446   37.2164 C   0  0  0  0  0  0  0  0  0  0  0  0
   17.3113   24.4806   37.2203 C   0  0  0  0  0  0  0  0  0  0  0  0
   16.8109   25.0914   38.5183 C   0  0  0  0  0  0  0  0  0  0  0  0
   16.4284   25.7164   37.1785 C   0  0  0  0  0  0  0  0  0  0  0  0
   24.7004   27.0970   37.0039 H   0  0  0  0  0  0  0  0  0  0  0  0
   30.8875   28.2367   37.8426 H   0  0  0  0  0  0  0  0  0  0  0  0
   32.5281   28.7695   36.0734 H   0  0  0  0  0  0  0  0  0  0  0  0
   32.1340   28.3195   33.6952 H   0  0  0  0  0  0  0  0  0  0  0  0
   29.9373   27.4178   32.9983 H   0  0  0  0  0  0  0  0  0  0  0  0
   26.5958   27.0142   32.9876 H   0  0  0  0  0  0  0  0  0  0  0  0
   28.1243   26.1388   32.6977 H   0  0  0  0  0  0  0  0  0  0  0  0
   22.0563   22.7208   35.2367 H   0  0  0  0  0  0  0  0  0  0  0  0
   19.1412   23.4363   35.2572 H   0  0  0  0  0  0  0  0  0  0  0  0
   19.5846   22.7445   36.8953 H   0  0  0  0  0  0  0  0  0  0  0  0
   21.1237   28.2409   37.0366 H   0  0  0  0  0  0  0  0  0  0  0  0
   22.8518   28.3686   36.6942 H   0  0  0  0  0  0  0  0  0  0  0  0
   22.3135   27.7337   38.3050 H   0  0  0  0  0  0  0  0  0  0  0  0
   16.8457   23.5194   36.9132 H   0  0  0  0  0  0  0  0  0  0  0  0
   15.9864   24.5237   38.9988 H   0  0  0  0  0  0  0  0  0  0  0  0
   17.5448   25.6680   39.1149 H   0  0  0  0  0  0  0  0  0  0  0  0
   16.9244   26.6793   36.9474 H   0  0  0  0  0  0  0  0  0  0  0  0
   15.3801   25.5140   36.8734 H   0  0  0  0  0  0  0  0  0  0  0  0
  1  2  1  0
  2  3  2  0
  2  4  1  0
  4  5  2  0
  5  6  1  0
  6  7  2  0
  7  8  1  0
  8  9  2  0
  9 10  1  0
 10 11  2  0
 11 12  1  0
 12 13  2  0
 13 14  1  0
  1 15  1  0
 15 16  2  0
 16 17  1  0
 17 18  2  0
 18 19  1  0
 19 20  1  0
 20 21  1  0
 21 22  2  0
 21 23  1  0
 23 24  2  0
 24 25  1  0
 20 26  1  0
 26 27  1  0
 27 28  1  0
 13  4  1  0
 24 15  1  0
 28 26  1  0
 12  7  1  0
 23 18  1  0
  1 29  1  0
  8 30  1  0
  9 31  1  0
 10 32  1  0
 11 33  1  0
 14 34  1  0
 14 35  1  0
 17 36  1  0
 19 37  1  0
 19 38  1  0
 25 39  1  0
 25 40  1  0
 25 41  1  0
 26 42  1  0
 27 43  1  0
 27 44  1  0
 28 45  1  0
 28 46  1  0
M  END
$$$$
confid_2
     RDKit          3D

 46 50  0  0  0  0  0  0  0  0999 V2000
   24.5500   26.3900   36.2500 N   0  0  0  0  0  0  0  0  0  0  0  0
   25.6000   26.1300   35.4000 C   0  0  0  0  0  0  0  0  0  0  0  0
   25.4300   25.4300   34.4200 O   0  0  0  0  0  0  0  0  0  0  0  0
   26.9800   26.6300   35.7100 C   0  0  0  0  0  0  0  0  0  0  0  0
   27.3200   26.8200   36.9800 N   0  0  0  0  0  0  0  0  0  0  0  0
   28.4700   27.4000   37.3100 N   0  0  0  0  0  0  0  0  0  0  0  0
   29.4000   27.6300   36.3700 C   0  0  0  0  0  0  0  0  0  0  0  0
   30.6600   28.0500   36.8000 C   0  0  0  0  0  0  0  0  0  0  0  0
   31.5700   28.3600   35.7800 C   0  0  0  0  0  0  0  0  0  0  0  0
   31.3700   28.1000   34.4300 C   0  0  0  0  0  0  0  0  0  0  0  0
   30.1200   27.5900   34.0500 C   0  0  0  0  0  0  0  0  0  0  0  0
   29.1500   27.3400   35.0300 C   0  0  0  0  0  0  0  0  0  0  0  0
   27.8800   26.8900   34.6600 C   0  0  0  0  0  0  0  0  0  0  0  0
   27.4800   26.6100   33.3700 N   0  0  0  0  0  0  0  0  0  0  0  0
   23.2755   25.7194   36.1839 C   0  0  0  0  0  0  0  0  0  0  0  0
   23.2082   24.4520   35.6661 N   0  0  0  0  0  0  0  0  0  0  0  0
   22.0548   23.7299   35.6289 C   0  0  0  0  0  0  0  0  0  0  0  0
   20.8992   24.2887   36.1571 C   0  0  0  0  0  0  0  0  0  0  0  0
   19.5417   23.6604   36.2694 C   0  0  0  0  0  0  0  0  0  0  0  0
   18.7397   24.7075   36.9064 N   0  0  0  0  0  0  0  0  0  0  0  0
   19.5885   25.8153   37.1917 C   0  0  0  0  0  0  0  0  0  0  0  0
   19.2204   26.8305   37.8401 O   0  0  0  0  0  0  0  0  0  0  0  0
   20.9260   25.5569   36.6919 C   0  0  0  0  0  0  0  0  0  0  0  0
   22.0991   26.3308   36.6994 C   0  0  0  0  0  0  0  0  0  0  0  0
   22.1066   27.7330   37.2500 C   0  0  0  0  0  0  0  0  0  0  0  0
   17.4346   24.4877   37.5232 C   0  0  0  0  0  0  0  0  0  0  0  0
   16.3731   23.9816   36.5605 C   0  0  0  0  0  0  0  0  0  0  0  0
   16.3590   25.4322   37.0146 C   0  0  0  0  0  0  0  0  0  0  0  0
   24.7003   27.0992   37.0019 H   0  0  0  0  0  0  0  0  0  0  0  0
   30.8875   28.2367   37.8426 H   0  0  0  0  0  0  0  0  0  0  0  0
   32.5281   28.7695   36.0734 H   0  0  0  0  0  0  0  0  0  0  0  0
   32.1340   28.3195   33.6952 H   0  0  0  0  0  0  0  0  0  0  0  0
   29.9373   27.4178   32.9983 H   0  0  0  0  0  0  0  0  0  0  0  0
   28.1242   26.1388   32.6977 H   0  0  0  0  0  0  0  0  0  0  0  0
   26.5958   27.0142   32.9876 H   0  0  0  0  0  0  0  0  0  0  0  0
   22.0490   22.7313   35.2130 H   0  0  0  0  0  0  0  0  0  0  0  0
   19.5871   22.7586   36.9168 H   0  0  0  0  0  0  0  0  0  0  0  0
   19.1372   23.4161   35.2648 H   0  0  0  0  0  0  0  0  0  0  0  0
   22.8357   28.3695   36.7074 H   0  0  0  0  0  0  0  0  0  0  0  0
   22.3643   27.7092   38.3292 H   0  0  0  0  0  0  0  0  0  0  0  0
   21.1218   28.2227   37.1160 H   0  0  0  0  0  0  0  0  0  0  0  0
   17.3815   24.1672   38.5850 H   0  0  0  0  0  0  0  0  0  0  0  0
   15.5859   23.3560   37.0313 H   0  0  0  0  0  0  0  0  0  0  0  0
   16.6902   23.8498   35.5043 H   0  0  0  0  0  0  0  0  0  0  0  0
   15.5673   25.6667   37.7569 H   0  0  0  0  0  0  0  0  0  0  0  0
   16.6823   26.1538   36.2337 H   0  0  0  0  0  0  0  0  0  0  0  0
  1  2  1  0
  2  3  2  0
  2  4  1  0
  4  5  2  0
  5  6  1  0
  6  7  2  0
  7  8  1  0
  8  9  2  0
  9 10  1  0
 10 11  2  0
 11 12  1  0
 12 13  2  0
 13 14  1  0
  1 15  1  0
 15 16  2  0
 16 17  1  0
 17 18  2  0
 18 19  1  0
 19 20  1  0
 20 21  1  0
 21 22  2  0
 21 23  1  0
 23 24  2  0
 24 25  1  0
 20 26  1  0
 26 27  1  0
 27 28  1  0
 13  4  1  0
 24 15  1  0
 28 26  1  0
 12  7  1  0
 23 18  1  0
  1 29  1  0
  8 30  1  0
  9 31  1  0
 10 32  1  0
 11 33  1  0
 14 34  1  0
 14 35  1  0
 17 36  1  0
 19 37  1  0
 19 38  1  0
 25 39  1  0
 25 40  1  0
 25 41  1  0
 26 42  1  0
 27 43  1  0
 27 44  1  0
 28 45  1  0
 28 46  1  0
M  END
$$$$
confid_3
     RDKit          3D

 46 50  0  0  0  0  0  0  0  0999 V2000
   24.5500   26.3900   36.2500 N   0  0  0  0  0  0  0  0  0  0  0  0
   25.6000   26.1300   35.4000 C   0  0  0  0  0  0  0  0  0  0  0  0
   25.4300   25.4300   34.4200 O   0  0  0  0  0  0  0  0  0  0  0  0
   26.9800   26.6300   35.7100 C   0  0  0  0  0  0  0  0  0  0  0  0
   27.3200   26.8200   36.9800 N   0  0  0  0  0  0  0  0  0  0  0  0
   28.4700   27.4000   37.3100 N   0  0  0  0  0  0  0  0  0  0  0  0
   29.4000   27.6300   36.3700 C   0  0  0  0  0  0  0  0  0  0  0  0
   30.6600   28.0500   36.8000 C   0  0  0  0  0  0  0  0  0  0  0  0
   31.5700   28.3600   35.7800 C   0  0  0  0  0  0  0  0  0  0  0  0
   31.3700   28.1000   34.4300 C   0  0  0  0  0  0  0  0  0  0  0  0
   30.1200   27.5900   34.0500 C   0  0  0  0  0  0  0  0  0  0  0  0
   29.1500   27.3400   35.0300 C   0  0  0  0  0  0  0  0  0  0  0  0
   27.8800   26.8900   34.6600 C   0  0  0  0  0  0  0  0  0  0  0  0
   27.4800   26.6100   33.3700 N   0  0  0  0  0  0  0  0  0  0  0  0
   23.2761   25.7187   36.1832 C   0  0  0  0  0  0  0  0  0  0  0  0
   23.2127   24.4461   35.6785 N   0  0  0  0  0  0  0  0  0  0  0  0
   22.0602   23.7230   35.6440 C   0  0  0  0  0  0  0  0  0  0  0  0
   20.9024   24.2854   36.1640 C   0  0  0  0  0  0  0  0  0  0  0  0
   19.5450   23.6602   36.2675 C   0  0  0  0  0  0  0  0  0  0  0  0
   18.7372   24.6917   36.9223 N   0  0  0  0  0  0  0  0  0  0  0  0
   19.5840   25.8224   37.1749 C   0  0  0  0  0  0  0  0  0  0  0  0
   19.2229   26.8686   37.7751 O   0  0  0  0  0  0  0  0  0  0  0  0
   20.9241   25.5577   36.6839 C   0  0  0  0  0  0  0  0  0  0  0  0
   22.0961   26.3346   36.6853 C   0  0  0  0  0  0  0  0  0  0  0  0
   22.0979   27.7446   37.2165 C   0  0  0  0  0  0  0  0  0  0  0  0
   17.3112   24.4805   37.2202 C   0  0  0  0  0  0  0  0  0  0  0  0
   16.4284   25.7164   37.1784 C   0  0  0  0  0  0  0  0  0  0  0  0
   16.8109   25.0913   38.5182 C   0  0  0  0  0  0  0  0  0  0  0  0
   24.7004   27.0970   37.0039 H   0  0  0  0  0  0  0  0  0  0  0  0
   30.8875   28.2367   37.8426 H   0  0  0  0  0  0  0  0  0  0  0  0
   32.5281   28.7695   36.0734 H   0  0  0  0  0  0  0  0  0  0  0  0
   32.1340   28.3195   33.6952 H   0  0  0  0  0  0  0  0  0  0  0  0
   29.9373   27.4178   32.9983 H   0  0  0  0  0  0  0  0  0  0  0  0
   26.5958   27.0142   32.9876 H   0  0  0  0  0  0  0  0  0  0  0  0
   28.1242   26.1388   32.6977 H   0  0  0  0  0  0  0  0  0  0  0  0
   22.0564   22.7208   35.2366 H   0  0  0  0  0  0  0  0  0  0  0  0
   19.1412   23.4363   35.2571 H   0  0  0  0  0  0  0  0  0  0  0  0
   19.5846   22.7445   36.8952 H   0  0  0  0  0  0  0  0  0  0  0  0
   22.8518   28.3686   36.6942 H   0  0  0  0  0  0  0  0  0  0  0  0
   22.3136   27.7337   38.3051 H   0  0  0  0  0  0  0  0  0  0  0  0
   21.1237   28.2409   37.0367 H   0  0  0  0  0  0  0  0  0  0  0  0
   16.8457   23.5194   36.9131 H   0  0  0  0  0  0  0  0  0  0  0  0
   15.3801   25.5140   36.8733 H   0  0  0  0  0  0  0  0  0  0  0  0
   16.9244   26.6793   36.9474 H   0  0  0  0  0  0  0  0  0  0  0  0
   15.9864   24.5236   38.9987 H   0  0  0  0  0  0  0  0  0  0  0  0
   17.5448   25.6680   39.1149 H   0  0  0  0  0  0  0  0  0  0  0  0
  1  2  1  0
  2  3  2  0
  2  4  1  0
  4  5  2  0
  5  6  1  0
  6  7  2  0
  7  8  1  0
  8  9  2  0
  9 10  1  0
 10 11  2  0
 11 12  1  0
 12 13  2  0
 13 14  1  0
  1 15  1  0
 15 16  2  0
 16 17  1  0
 17 18  2  0
 18 19  1  0
 19 20  1  0
 20 21  1  0
 21 22  2  0
 21 23  1  0
 23 24  2  0
 24 25  1  0
 20 26  1  0
 26 27  1  0
 27 28  1  0
 13  4  1  0
 24 15  1  0
 28 26  1  0
 12  7  1  0
 23 18  1  0
  1 29  1  0
  8 30  1  0
  9 31  1  0
 10 32  1  0
 11 33  1  0
 14 34  1  0
 14 35  1  0
 17 36  1  0
 19 37  1  0
 19 38  1  0
 25 39  1  0
 25 40  1  0
 25 41  1  0
 26 42  1  0
 27 43  1  0
 27 44  1  0
 28 45  1  0
 28 46  1  0
M  END
$$$$
confid_4
     RDKit          3D

 46 50  0  0  0  0  0  0  0  0999 V2000
   24.5500   26.3900   36.2500 N   0  0  0  0  0  0  0  0  0  0  0  0
   25.6000   26.1300   35.4000 C   0  0  0  0  0  0  0  0  0  0  0  0
   25.4300   25.4300   34.4200 O   0  0  0  0  0  0  0  0  0  0  0  0
   26.9800   26.6300   35.7100 C   0  0  0  0  0  0  0  0  0  0  0  0
   27.3200   26.8200   36.9800 N   0  0  0  0  0  0  0  0  0  0  0  0
   28.4700   27.4000   37.3100 N   0  0  0  0  0  0  0  0  0  0  0  0
   29.4000   27.6300   36.3700 C   0  0  0  0  0  0  0  0  0  0  0  0
   30.6600   28.0500   36.8000 C   0  0  0  0  0  0  0  0  0  0  0  0
   31.5700   28.3600   35.7800 C   0  0  0  0  0  0  0  0  0  0  0  0
   31.3700   28.1000   34.4300 C   0  0  0  0  0  0  0  0  0  0  0  0
   30.1200   27.5900   34.0500 C   0  0  0  0  0  0  0  0  0  0  0  0
   29.1500   27.3400   35.0300 C   0  0  0  0  0  0  0  0  0  0  0  0
   27.8800   26.8900   34.6600 C   0  0  0  0  0  0  0  0  0  0  0  0
   27.4800   26.6100   33.3700 N   0  0  0  0  0  0  0  0  0  0  0  0
   23.2755   25.7194   36.1839 C   0  0  0  0  0  0  0  0  0  0  0  0
   23.2082   24.4520   35.6661 N   0  0  0  0  0  0  0  0  0  0  0  0
   22.0549   23.7299   35.6289 C   0  0  0  0  0  0  0  0  0  0  0  0
   20.8992   24.2887   36.1571 C   0  0  0  0  0  0  0  0  0  0  0  0
   19.5417   23.6604   36.2694 C   0  0  0  0  0  0  0  0  0  0  0  0
   18.7397   24.7075   36.9064 N   0  0  0  0  0  0  0  0  0  0  0  0
   19.5885   25.8153   37.1917 C   0  0  0  0  0  0  0  0  0  0  0  0
   19.2204   26.8305   37.8401 O   0  0  0  0  0  0  0  0  0  0  0  0
   20.9260   25.5569   36.6919 C   0  0  0  0  0  0  0  0  0  0  0  0
   22.0991   26.3308   36.6994 C   0  0  0  0  0  0  0  0  0  0  0  0
   22.1066   27.7330   37.2500 C   0  0  0  0  0  0  0  0  0  0  0  0
   17.4346   24.4877   37.5232 C   0  0  0  0  0  0  0  0  0  0  0  0
   16.3589   25.4322   37.0145 C   0  0  0  0  0  0  0  0  0  0  0  0
   16.3731   23.9815   36.5605 C   0  0  0  0  0  0  0  0  0  0  0  0
   24.7003   27.0992   37.0019 H   0  0  0  0  0  0  0  0  0  0  0  0
   30.8875   28.2367   37.8426 H   0  0  0  0  0  0  0  0  0  0  0  0
   32.5281   28.7695   36.0734 H   0  0  0  0  0  0  0  0  0  0  0  0
   32.1340   28.3195   33.6952 H   0  0  0  0  0  0  0  0  0  0  0  0
   29.9373   27.4178   32.9983 H   0  0  0  0  0  0  0  0  0  0  0  0
   28.1242   26.1388   32.6977 H   0  0  0  0  0  0  0  0  0  0  0  0
   26.5958   27.0142   32.9876 H   0  0  0  0  0  0  0  0  0  0  0  0
   22.0490   22.7313   35.2130 H   0  0  0  0  0  0  0  0  0  0  0  0
   19.5871   22.7586   36.9168 H   0  0  0  0  0  0  0  0  0  0  0  0
   19.1373   23.4161   35.2648 H   0  0  0  0  0  0  0  0  0  0  0  0
   21.1218   28.2227   37.1160 H   0  0  0  0  0  0  0  0  0  0  0  0
   22.3643   27.7092   38.3292 H   0  0  0  0  0  0  0  0  0  0  0  0
   22.8357   28.3695   36.7074 H   0  0  0  0  0  0  0  0  0  0  0  0
   17.3815   24.1672   38.5850 H   0  0  0  0  0  0  0  0  0  0  0  0
   16.6823   26.1538   36.2337 H   0  0  0  0  0  0  0  0  0  0  0  0
   15.5673   25.6667   37.7569 H   0  0  0  0  0  0  0  0  0  0  0  0
   16.6902   23.8498   35.5042 H   0  0  0  0  0  0  0  0  0  0  0  0
   15.5859   23.3559   37.0313 H   0  0  0  0  0  0  0  0  0  0  0  0
  1  2  1  0
  2  3  2  0
  2  4  1  0
  4  5  2  0
  5  6  1  0
  6  7  2  0
  7  8  1  0
  8  9  2  0
  9 10  1  0
 10 11  2  0
 11 12  1  0
 12 13  2  0
 13 14  1  0
  1 15  1  0
 15 16  2  0
 16 17  1  0
 17 18  2  0
 18 19  1  0
 19 20  1  0
 20 21  1  0
 21 22  2  0
 21 23  1  0
 23 24  2  0
 24 25  1  0
 20 26  1  0
 26 27  1  0
 27 28  1  0
 13  4  1  0
 24 15  1  0
 28 26  1  0
 12  7  1  0
 23 18  1  0
  1 29  1  0
  8 30  1  0
  9 31  1  0
 10 32  1  0
 11 33  1  0
 14 34  1  0
 14 35  1  0
 17 36  1  0
 19 37  1  0
 19 38  1  0
 25 39  1  0
 25 40  1  0
 25 41  1  0
 26 42  1  0
 27 43  1  0
 27 44  1  0
 28 45  1  0
 28 46  1  0
M  END
$$$$
confid_5
     RDKit          3D

 46 50  0  0  0  0  0  0  0  0999 V2000
   24.5500   26.3900   36.2500 N   0  0  0  0  0  0  0  0  0  0  0  0
   25.6000   26.1300   35.4000 C   0  0  0  0  0  0  0  0  0  0  0  0
   25.4300   25.4300   34.4200 O   0  0  0  0  0  0  0  0  0  0  0  0
   26.9800   26.6300   35.7100 C   0  0  0  0  0  0  0  0  0  0  0  0
   27.3200   26.8200   36.9800 N   0  0  0  0  0  0  0  0  0  0  0  0
   28.4700   27.4000   37.3100 N   0  0  0  0  0  0  0  0  0  0  0  0
   29.4000   27.6300   36.3700 C   0  0  0  0  0  0  0  0  0  0  0  0
   30.6600   28.0500   36.8000 C   0  0  0  0  0  0  0  0  0  0  0  0
   31.5700   28.3600   35.7800 C   0  0  0  0  0  0  0  0  0  0  0  0
   31.3700   28.1000   34.4300 C   0  0  0  0  0  0  0  0  0  0  0  0
   30.1200   27.5900   34.0500 C   0  0  0  0  0  0  0  0  0  0  0  0
   29.1500   27.3400   35.0300 C   0  0  0  0  0  0  0  0  0  0  0  0
   27.8800   26.8900   34.6600 C   0  0  0  0  0  0  0  0  0  0  0  0
   27.4800   26.6100   33.3700 N   0  0  0  0  0  0  0  0  0  0  0  0
   23.1761   26.0762   35.9473 C   0  0  0  0  0  0  0  0  0  0  0  0
   22.7718   26.0172   34.6390 N   0  0  0  0  0  0  0  0  0  0  0  0
   21.4795   25.7923   34.2759 C   0  0  0  0  0  0  0  0  0  0  0  0
   20.5227   25.6399   35.2701 C   0  0  0  0  0  0  0  0  0  0  0  0
   19.0493   25.4280   35.1014 C   0  0  0  0  0  0  0  0  0  0  0  0
   18.5473   25.3726   36.4763 N   0  0  0  0  0  0  0  0  0  0  0  0
   19.6632   25.5455   37.3619 C   0  0  0  0  0  0  0  0  0  0  0  0
   19.5807   25.6016   38.6169 O   0  0  0  0  0  0  0  0  0  0  0  0
   20.8860   25.6966   36.5946 C   0  0  0  0  0  0  0  0  0  0  0  0
   22.2234   25.8834   36.9859 C   0  0  0  0  0  0  0  0  0  0  0  0
   22.6160   25.8996   38.4404 C   0  0  0  0  0  0  0  0  0  0  0  0
   17.1183   25.1732   36.7678 C   0  0  0  0  0  0  0  0  0  0  0  0
   16.7949   24.4158   38.0446 C   0  0  0  0  0  0  0  0  0  0  0  0
   16.5793   25.9258   37.9725 C   0  0  0  0  0  0  0  0  0  0  0  0
   24.7526   26.9015   37.1376 H   0  0  0  0  0  0  0  0  0  0  0  0
   30.8875   28.2367   37.8426 H   0  0  0  0  0  0  0  0  0  0  0  0
   32.5281   28.7695   36.0734 H   0  0  0  0  0  0  0  0  0  0  0  0
   32.1340   28.3195   33.6952 H   0  0  0  0  0  0  0  0  0  0  0  0
   29.9373   27.4178   32.9983 H   0  0  0  0  0  0  0  0  0  0  0  0
   26.5955   27.0139   32.9877 H   0  0  0  0  0  0  0  0  0  0  0  0
   28.1243   26.1390   32.6977 H   0  0  0  0  0  0  0  0  0  0  0  0
   21.2049   25.7543   33.2302 H   0  0  0  0  0  0  0  0  0  0  0  0
   18.8512   24.4682   34.5784 H   0  0  0  0  0  0  0  0  0  0  0  0
   18.5925   26.2823   34.5577 H   0  0  0  0  0  0  0  0  0  0  0  0
   23.6549   25.5365   38.5802 H   0  0  0  0  0  0  0  0  0  0  0  0
   22.5259   26.9309   38.8403 H   0  0  0  0  0  0  0  0  0  0  0  0
   21.9776   25.2150   39.0335 H   0  0  0  0  0  0  0  0  0  0  0  0
   16.4201   25.0399   35.9137 H   0  0  0  0  0  0  0  0  0  0  0  0
   15.8549   23.8268   37.9961 H   0  0  0  0  0  0  0  0  0  0  0  0
   17.6525   24.0900   38.6651 H   0  0  0  0  0  0  0  0  0  0  0  0
   15.5128   26.2218   37.8827 H   0  0  0  0  0  0  0  0  0  0  0  0
   17.3050   26.5336   38.5479 H   0  0  0  0  0  0  0  0  0  0  0  0
  1  2  1  0
  2  3  2  0
  2  4  1  0
  4  5  2  0
  5  6  1  0
  6  7  2  0
  7  8  1  0
  8  9  2  0
  9 10  1  0
 10 11  2  0
 11 12  1  0
 12 13  2  0
 13 14  1  0
  1 15  1  0
 15 16  2  0
 16 17  1  0
 17 18  2  0
 18 19  1  0
 19 20  1  0
 20 21  1  0
 21 22  2  0
 21 23  1  0
 23 24  2  0
 24 25  1  0
 20 26  1  0
 26 27  1  0
 27 28  1  0
 13  4  1  0
 24 15  1  0
 28 26  1  0
 12  7  1  0
 23 18  1  0
  1 29  1  0
  8 30  1  0
  9 31  1  0
 10 32  1  0
 11 33  1  0
 14 34  1  0
 14 35  1  0
 17 36  1  0
 19 37  1  0
 19 38  1  0
 25 39  1  0
 25 40  1  0
 25 41  1  0
 26 42  1  0
 27 43  1  0
 27 44  1  0
 28 45  1  0
 28 46  1  0
M  END
$$$$
confid_6
     RDKit          3D

 46 50  0  0  0  0  0  0  0  0999 V2000
   24.5500   26.3900   36.2500 N   0  0  0  0  0  0  0  0  0  0  0  0
   25.6000   26.1300   35.4000 C   0  0  0  0  0  0  0  0  0  0  0  0
   25.4300   25.4300   34.4200 O   0  0  0  0  0  0  0  0  0  0  0  0
   26.9800   26.6300   35.7100 C   0  0  0  0  0  0  0  0  0  0  0  0
   27.3200   26.8200   36.9800 N   0  0  0  0  0  0  0  0  0  0  0  0
   28.4700   27.4000   37.3100 N   0  0  0  0  0  0  0  0  0  0  0  0
   29.4000   27.6300   36.3700 C   0  0  0  0  0  0  0  0  0  0  0  0
   30.6600   28.0500   36.8000 C   0  0  0  0  0  0  0  0  0  0  0  0
   31.5700   28.3600   35.7800 C   0  0  0  0  0  0  0  0  0  0  0  0
   31.3700   28.1000   34.4300 C   0  0  0  0  0  0  0  0  0  0  0  0
   30.1200   27.5900   34.0500 C   0  0  0  0  0  0  0  0  0  0  0  0
   29.1500   27.3400   35.0300 C   0  0  0  0  0  0  0  0  0  0  0  0
   27.8800   26.8900   34.6600 C   0  0  0  0  0  0  0  0  0  0  0  0
   27.4800   26.6100   33.3700 N   0  0  0  0  0  0  0  0  0  0  0  0
   23.1756   26.0765   35.9481 C   0  0  0  0  0  0  0  0  0  0  0  0
   22.7730   26.0038   34.6398 N   0  0  0  0  0  0  0  0  0  0  0  0
   21.4810   25.7761   34.2765 C   0  0  0  0  0  0  0  0  0  0  0  0
   20.5227   25.6323   35.2705 C   0  0  0  0  0  0  0  0  0  0  0  0
   19.0460   25.4293   35.1027 C   0  0  0  0  0  0  0  0  0  0  0  0
   18.5592   25.3547   36.4823 N   0  0  0  0  0  0  0  0  0  0  0  0
   19.6605   25.5637   37.3612 C   0  0  0  0  0  0  0  0  0  0  0  0
   19.5486   25.6686   38.6114 O   0  0  0  0  0  0  0  0  0  0  0  0
   20.8855   25.7043   36.5964 C   0  0  0  0  0  0  0  0  0  0  0  0
   22.2213   25.8973   36.9875 C   0  0  0  0  0  0  0  0  0  0  0  0
   22.6115   25.9341   38.4421 C   0  0  0  0  0  0  0  0  0  0  0  0
   17.1575   25.4809   36.8713 C   0  0  0  0  0  0  0  0  0  0  0  0
   16.6673   24.3381   37.7439 C   0  0  0  0  0  0  0  0  0  0  0  0
   16.2537   24.4103   36.2829 C   0  0  0  0  0  0  0  0  0  0  0  0
   24.7537   26.8988   37.1389 H   0  0  0  0  0  0  0  0  0  0  0  0
   30.8875   28.2367   37.8426 H   0  0  0  0  0  0  0  0  0  0  0  0
   32.5281   28.7695   36.0734 H   0  0  0  0  0  0  0  0  0  0  0  0
   32.1340   28.3195   33.6952 H   0  0  0  0  0  0  0  0  0  0  0  0
   29.9373   27.4178   32.9983 H   0  0  0  0  0  0  0  0  0  0  0  0
   26.5955   27.0139   32.9877 H   0  0  0  0  0  0  0  0  0  0  0  0
   28.1243   26.1390   32.6977 H   0  0  0  0  0  0  0  0  0  0  0  0
   21.2079   25.7295   33.2309 H   0  0  0  0  0  0  0  0  0  0  0  0
   18.5948   26.2989   34.5786 H   0  0  0  0  0  0  0  0  0  0  0  0
   18.8381   24.4811   34.5639 H   0  0  0  0  0  0  0  0  0  0  0  0
   22.5564   26.9771   38.8172 H   0  0  0  0  0  0  0  0  0  0  0  0
   21.9497   25.2868   39.0511 H   0  0  0  0  0  0  0  0  0  0  0  0
   23.6381   25.5400   38.5895 H   0  0  0  0  0  0  0  0  0  0  0  0
   16.7322   26.4902   37.0539 H   0  0  0  0  0  0  0  0  0  0  0  0
   15.8633   24.6186   38.4565 H   0  0  0  0  0  0  0  0  0  0  0  0
   17.4148   23.5458   37.9637 H   0  0  0  0  0  0  0  0  0  0  0  0
   15.2016   24.7300   36.1292 H   0  0  0  0  0  0  0  0  0  0  0  0
   16.7469   23.6477   35.6434 H   0  0  0  0  0  0  0  0  0  0  0  0
  1  2  1  0
  2  3  2  0
  2  4  1  0
  4  5  2  0
  5  6  1  0
  6  7  2  0
  7  8  1  0
  8  9  2  0
  9 10  1  0
 10 11  2  0
 11 12  1  0
 12 13  2  0
 13 14  1  0
  1 15  1  0
 15 16  2  0
 16 17  1  0
 17 18  2  0
 18 19  1  0
 19 20  1  0
 20 21  1  0
 21 22  2  0
 21 23  1  0
 23 24  2  0
 24 25  1  0
 20 26  1  0
 26 27  1  0
 27 28  1  0
 13  4  1  0
 24 15  1  0
 28 26  1  0
 12  7  1  0
 23 18  1  0
  1 29  1  0
  8 30  1  0
  9 31  1  0
 10 32  1  0
 11 33  1  0
 14 34  1  0
 14 35  1  0
 17 36  1  0
 19 37  1  0
 19 38  1  0
 25 39  1  0
 25 40  1  0
 25 41  1  0
 26 42  1  0
 27 43  1  0
 27 44  1  0
 28 45  1  0
 28 46  1  0
M  END
$$$$
confid_7
     RDKit          3D

 46 50  0  0  0  0  0  0  0  0999 V2000
   24.5500   26.3900   36.2500 N   0  0  0  0  0  0  0  0  0  0  0  0
   25.6000   26.1300   35.4000 C   0  0  0  0  0  0  0  0  0  0  0  0
   25.4300   25.4300   34.4200 O   0  0  0  0  0  0  0  0  0  0  0  0
   26.9800   26.6300   35.7100 C   0  0  0  0  0  0  0  0  0  0  0  0
   27.3200   26.8200   36.9800 N   0  0  0  0  0  0  0  0  0  0  0  0
   28.4700   27.4000   37.3100 N   0  0  0  0  0  0  0  0  0  0  0  0
   29.4000   27.6300   36.3700 C   0  0  0  0  0  0  0  0  0  0  0  0
   30.6600   28.0500   36.8000 C   0  0  0  0  0  0  0  0  0  0  0  0
   31.5700   28.3600   35.7800 C   0  0  0  0  0  0  0  0  0  0  0  0
   31.3700   28.1000   34.4300 C   0  0  0  0  0  0  0  0  0  0  0  0
   30.1200   27.5900   34.0500 C   0  0  0  0  0  0  0  0  0  0  0  0
   29.1500   27.3400   35.0300 C   0  0  0  0  0  0  0  0  0  0  0  0
   27.8800   26.8900   34.6600 C   0  0  0  0  0  0  0  0  0  0  0  0
   27.4800   26.6100   33.3700 N   0  0  0  0  0  0  0  0  0  0  0  0
   23.1761   26.0762   35.9473 C   0  0  0  0  0  0  0  0  0  0  0  0
   22.7718   26.0171   34.6390 N   0  0  0  0  0  0  0  0  0  0  0  0
   21.4795   25.7921   34.2759 C   0  0  0  0  0  0  0  0  0  0  0  0
   20.5227   25.6398   35.2702 C   0  0  0  0  0  0  0  0  0  0  0  0
   19.0493   25.4278   35.1015 C   0  0  0  0  0  0  0  0  0  0  0  0
   18.5474   25.3724   36.4764 N   0  0  0  0  0  0  0  0  0  0  0  0
   19.6632   25.5455   37.3620 C   0  0  0  0  0  0  0  0  0  0  0  0
   19.5808   25.6016   38.6170 O   0  0  0  0  0  0  0  0  0  0  0  0
   20.8860   25.6966   36.5947 C   0  0  0  0  0  0  0  0  0  0  0  0
   22.2234   25.8834   36.9860 C   0  0  0  0  0  0  0  0  0  0  0  0
   22.6161   25.8997   38.4405 C   0  0  0  0  0  0  0  0  0  0  0  0
   17.1184   25.1730   36.7679 C   0  0  0  0  0  0  0  0  0  0  0  0
   16.5793   25.9258   37.9725 C   0  0  0  0  0  0  0  0  0  0  0  0
   16.7950   24.4157   38.0448 C   0  0  0  0  0  0  0  0  0  0  0  0
   24.7526   26.9015   37.1376 H   0  0  0  0  0  0  0  0  0  0  0  0
   30.8875   28.2367   37.8426 H   0  0  0  0  0  0  0  0  0  0  0  0
   32.5281   28.7695   36.0734 H   0  0  0  0  0  0  0  0  0  0  0  0
   32.1340   28.3195   33.6952 H   0  0  0  0  0  0  0  0  0  0  0  0
   29.9373   27.4178   32.9983 H   0  0  0  0  0  0  0  0  0  0  0  0
   26.5955   27.0139   32.9877 H   0  0  0  0  0  0  0  0  0  0  0  0
   28.1243   26.1390   32.6977 H   0  0  0  0  0  0  0  0  0  0  0  0
   21.2049   25.7540   33.2303 H   0  0  0  0  0  0  0  0  0  0  0  0
   18.5925   26.2820   34.5577 H   0  0  0  0  0  0  0  0  0  0  0  0
   18.8513   24.4679   34.5786 H   0  0  0  0  0  0  0  0  0  0  0  0
   23.6549   25.5366   38.5802 H   0  0  0  0  0  0  0  0  0  0  0  0
   22.5260   26.9310   38.8403 H   0  0  0  0  0  0  0  0  0  0  0  0
   21.9776   25.2152   39.0336 H   0  0  0  0  0  0  0  0  0  0  0  0
   16.4201   25.0397   35.9138 H   0  0  0  0  0  0  0  0  0  0  0  0
   15.5128   26.2216   37.8828 H   0  0  0  0  0  0  0  0  0  0  0  0
   17.3050   26.5335   38.5480 H   0  0  0  0  0  0  0  0  0  0  0  0
   15.8550   23.8267   37.9963 H   0  0  0  0  0  0  0  0  0  0  0  0
   17.6526   24.0900   38.6654 H   0  0  0  0  0  0  0  0  0  0  0  0
  1  2  1  0
  2  3  2  0
  2  4  1  0
  4  5  2  0
  5  6  1  0
  6  7  2  0
  7  8  1  0
  8  9  2  0
  9 10  1  0
 10 11  2  0
 11 12  1  0
 12 13  2  0
 13 14  1  0
  1 15  1  0
 15 16  2  0
 16 17  1  0
 17 18  2  0
 18 19  1  0
 19 20  1  0
 20 21  1  0
 21 22  2  0
 21 23  1  0
 23 24  2  0
 24 25  1  0
 20 26  1  0
 26 27  1  0
 27 28  1  0
 13  4  1  0
 24 15  1  0
 28 26  1  0
 12  7  1  0
 23 18  1  0
  1 29  1  0
  8 30  1  0
  9 31  1  0
 10 32  1  0
 11 33  1  0
 14 34  1  0
 14 35  1  0
 17 36  1  0
 19 37  1  0
 19 38  1  0
 25 39  1  0
 25 40  1  0
 25 41  1  0
 26 42  1  0
 27 43  1  0
 27 44  1  0
 28 45  1  0
 28 46  1  0
M  END
$$$$
