confid_0
     RDKit          3D

 43 46  0  0  0  0  0  0  0  0999 V2000
   24.6900   26.1200   35.5300 N   0  0  0  0  0  0  0  0  0  0  0  0
   25.6600   25.6700   34.6600 C   0  0  0  0  0  0  0  0  0  0  0  0
   25.2400   25.0100   33.7200 O   0  0  0  0  0  0  0  0  0  0  0  0
   27.0300   26.2200   34.8800 C   0  0  0  0  0  0  0  0  0  0  0  0
   27.3500   26.7300   36.0700 N   0  0  0  0  0  0  0  0  0  0  0  0
   28.5700   27.1800   36.3300 N   0  0  0  0  0  0  0  0  0  0  0  0
   29.5300   27.1100   35.3900 C   0  0  0  0  0  0  0  0  0  0  0  0
   30.8300   27.5700   35.6500 C   0  0  0  0  0  0  0  0  0  0  0  0
   31.8500   27.5400   34.6900 C   0  0  0  0  0  0  0  0  0  0  0  0
   31.5100   27.1200   33.4000 C   0  0  0  0  0  0  0  0  0  0  0  0
   30.2200   26.6300   33.1100 C   0  0  0  0  0  0  0  0  0  0  0  0
   29.2400   26.6600   34.1000 C   0  0  0  0  0  0  0  0  0  0  0  0
   27.9300   26.2600   33.8100 C   0  0  0  0  0  0  0  0  0  0  0  0
   27.5200   25.7100   32.6100 N   0  0  0  0  0  0  0  0  0  0  0  0
   31.1552   28.0680   36.9578 N   0  0  0  0  0  0  0  0  0  0  0  0
   31.2212   29.5167   37.1719 C   0  0  0  0  0  0  0  0  0  0  0  0
   32.2388   29.8596   38.2642 C   0  0  0  0  0  0  0  0  0  0  0  0
   31.9896   29.0582   39.5212 C   0  0  0  0  0  0  0  0  0  0  0  0
   32.3246   29.5918   40.7769 C   0  0  0  0  0  0  0  0  0  0  0  0
   32.8242   30.8495   40.8832 F   0  0  0  0  0  0  0  0  0  0  0  0
   32.1572   28.8292   41.9339 C   0  0  0  0  0  0  0  0  0  0  0  0
   31.6619   27.5204   41.8577 C   0  0  0  0  0  0  0  0  0  0  0  0
   31.3562   26.9662   40.6037 C   0  0  0  0  0  0  0  0  0  0  0  0
   30.8926   25.6907   40.5364 F   0  0  0  0  0  0  0  0  0  0  0  0
   31.5201   27.7303   39.4302 C   0  0  0  0  0  0  0  0  0  0  0  0
   31.2025   27.1813   38.0911 C   0  0  0  0  0  0  0  0  0  0  0  0
   30.9977   25.9460   37.9357 O   0  0  0  0  0  0  0  0  0  0  0  0
   31.5040   26.6978   43.1045 C   0  0  0  0  0  0  0  0  0  0  0  0
   24.8908   26.7904   36.3051 H   0  0  0  0  0  0  0  0  0  0  0  0
   23.6981   25.8078   35.4227 H   0  0  0  0  0  0  0  0  0  0  0  0
   32.8506   27.8860   34.9173 H   0  0  0  0  0  0  0  0  0  0  0  0
   32.2655   27.1207   32.6250 H   0  0  0  0  0  0  0  0  0  0  0  0
   30.0114   26.2784   32.1079 H   0  0  0  0  0  0  0  0  0  0  0  0
   27.6978   26.2229   31.7183 H   0  0  0  0  0  0  0  0  0  0  0  0
   27.3415   24.6831   32.5416 H   0  0  0  0  0  0  0  0  0  0  0  0
   31.5154   30.0349   36.2327 H   0  0  0  0  0  0  0  0  0  0  0  0
   30.2157   29.8856   37.4700 H   0  0  0  0  0  0  0  0  0  0  0  0
   32.1750   30.9496   38.4717 H   0  0  0  0  0  0  0  0  0  0  0  0
   33.2630   29.6355   37.8956 H   0  0  0  0  0  0  0  0  0  0  0  0
   32.4205   29.2603   42.8920 H   0  0  0  0  0  0  0  0  0  0  0  0
   31.5947   27.3233   44.0181 H   0  0  0  0  0  0  0  0  0  0  0  0
   30.5040   26.2150   43.1173 H   0  0  0  0  0  0  0  0  0  0  0  0
   32.2879   25.9122   43.1316 H   0  0  0  0  0  0  0  0  0  0  0  0
  1  2  1  0
  2  3  2  0
  2  4  1  0
  4  5  2  0
  5  6  1  0
  6  7  2  0
  7  8  1  0
  8  9  2  0
  9 10  1  0
 10 11  2  0
 11 12  1  0
 12 13  2  0
 13 14  1  0
  8 15  1  0
 15 16  1  0
 16 17  1  0
 17 18  1  0
 18 19  2  0
 19 20  1  0
 19 21  1  0
 21 22  2  0
 22 23  1  0
 23 24  1  0
 23 25  2  0
 25 26  1  0
 26 27  2  0
 22 28  1  0
 13  4  1  0
 26 15  1  0
 12  7  1  0
 25 18  1  0
  1 29  1  0
  1 30  1  0
  9 31  1  0
 10 32  1  0
 11 33  1  0
 14 34  1  0
 14 35  1  0
 16 36  1  0
 16 37  1  0
 17 38  1  0
 17 39  1  0
 21 40  1  0
 28 41  1  0
 28 42  1  0
 28 43  1  0
M  END
$$$$
confid_1
     RDKit          3D

 43 46  0  0  0  0  0  0  0  0999 V2000
   24.6900   26.1200   35.5300 N   0  0  0  0  0  0  0  0  0  0  0  0
   25.6600   25.6700   34.6600 C   0  0  0  0  0  0  0  0  0  0  0  0
   25.2400   25.0100   33.7200 O   0  0  0  0  0  0  0  0  0  0  0  0
   27.0300   26.2200   34.8800 C   0  0  0  0  0  0  0  0  0  0  0  0
   27.3500   26.7300   36.0700 N   0  0  0  0  0  0  0  0  0  0  0  0
   28.5700   27.1800   36.3300 N   0  0  0  0  0  0  0  0  0  0  0  0
   29.5300   27.1100   35.3900 C   0  0  0  0  0  0  0  0  0  0  0  0
   30.8300   27.5700   35.6500 C   0  0  0  0  0  0  0  0  0  0  0  0
   31.8500   27.5400   34.6900 C   0  0  0  0  0  0  0  0  0  0  0  0
   31.5100   27.1200   33.4000 C   0  0  0  0  0  0  0  0  0  0  0  0
   30.2200   26.6300   33.1100 C   0  0  0  0  0  0  0  0  0  0  0  0
   29.2400   26.6600   34.1000 C   0  0  0  0  0  0  0  0  0  0  0  0
   27.9300   26.2600   33.8100 C   0  0  0  0  0  0  0  0  0  0  0  0
   27.5200   25.7100   32.6100 N   0  0  0  0  0  0  0  0  0  0  0  0
   31.1408   28.0771   36.9582 N   0  0  0  0  0  0  0  0  0  0  0  0
   30.7203   29.4349   37.3173 C   0  0  0  0  0  0  0  0  0  0  0  0
   30.4299   29.5317   38.8178 C   0  0  0  0  0  0  0  0  0  0  0  0
   31.5865   29.0074   39.6376 C   0  0  0  0  0  0  0  0  0  0  0  0
   31.8340   29.5258   40.9197 C   0  0  0  0  0  0  0  0  0  0  0  0
   31.0741   30.5350   41.4163 F   0  0  0  0  0  0  0  0  0  0  0  0
   32.8613   29.0012   41.7056 C   0  0  0  0  0  0  0  0  0  0  0  0
   33.6526   27.9467   41.2308 C   0  0  0  0  0  0  0  0  0  0  0  0
   33.3910   27.3987   39.9642 C   0  0  0  0  0  0  0  0  0  0  0  0
   34.1507   26.3639   39.5188 F   0  0  0  0  0  0  0  0  0  0  0  0
   32.3567   27.9237   39.1624 C   0  0  0  0  0  0  0  0  0  0  0  0
   32.0542   27.3731   37.8198 C   0  0  0  0  0  0  0  0  0  0  0  0
   32.5692   26.2855   37.4407 O   0  0  0  0  0  0  0  0  0  0  0  0
   34.7424   27.3727   42.0905 C   0  0  0  0  0  0  0  0  0  0  0  0
   23.6981   25.8078   35.4227 H   0  0  0  0  0  0  0  0  0  0  0  0
   24.8908   26.7905   36.3050 H   0  0  0  0  0  0  0  0  0  0  0  0
   32.8488   27.8929   34.9142 H   0  0  0  0  0  0  0  0  0  0  0  0
   32.2636   27.1275   32.6232 H   0  0  0  0  0  0  0  0  0  0  0  0
   30.0100   26.3036   32.1003 H   0  0  0  0  0  0  0  0  0  0  0  0
   28.1317   25.0436   32.0892 H   0  0  0  0  0  0  0  0  0  0  0  0
   26.6941   26.1028   32.1054 H   0  0  0  0  0  0  0  0  0  0  0  0
   31.5287   30.1488   37.0470 H   0  0  0  0  0  0  0  0  0  0  0  0
   29.8050   29.7220   36.7546 H   0  0  0  0  0  0  0  0  0  0  0  0
   29.5236   28.9343   39.0559 H   0  0  0  0  0  0  0  0  0  0  0  0
   30.2207   30.5948   39.0655 H   0  0  0  0  0  0  0  0  0  0  0  0
   33.0358   29.4165   42.6906 H   0  0  0  0  0  0  0  0  0  0  0  0
   34.9581   28.0259   42.9627 H   0  0  0  0  0  0  0  0  0  0  0  0
   35.6775   27.2689   41.5004 H   0  0  0  0  0  0  0  0  0  0  0  0
   34.4334   26.3731   42.4618 H   0  0  0  0  0  0  0  0  0  0  0  0
  1  2  1  0
  2  3  2  0
  2  4  1  0
  4  5  2  0
  5  6  1  0
  6  7  2  0
  7  8  1  0
  8  9  2  0
  9 10  1  0
 10 11  2  0
 11 12  1  0
 12 13  2  0
 13 14  1  0
  8 15  1  0
 15 16  1  0
 16 17  1  0
 17 18  1  0
 18 19  2  0
 19 20  1  0
 19 21  1  0
 21 22  2  0
 22 23  1  0
 23 24  1  0
 23 25  2  0
 25 26  1  0
 26 27  2  0
 22 28  1  0
 13  4  1  0
 26 15  1  0
 12  7  1  0
 25 18  1  0
  1 29  1  0
  1 30  1  0
  9 31  1  0
 10 32  1  0
 11 33  1  0
 14 34  1  0
 14 35  1  0
 16 36  1  0
 16 37  1  0
 17 38  1  0
 17 39  1  0
 21 40  1  0
 28 41  1  0
 28 42  1  0
 28 43  1  0
M  END
$$$$
confid_2
     RDKit          3D

 43 46  0  0  0  0  0  0  0  0999 V2000
   24.6900   26.1200   35.5300 N   0  0  0  0  0  0  0  0  0  0  0  0
   25.6600   25.6700   34.6600 C   0  0  0  0  0  0  0  0  0  0  0  0
   25.2400   25.0100   33.7200 O   0  0  0  0  0  0  0  0  0  0  0  0
   27.0300   26.2200   34.8800 C   0  0  0  0  0  0  0  0  0  0  0  0
   27.3500   26.7300   36.0700 N   0  0  0  0  0  0  0  0  0  0  0  0
   28.5700   27.1800   36.3300 N   0  0  0  0  0  0  0  0  0  0  0  0
   29.5300   27.1100   35.3900 C   0  0  0  0  0  0  0  0  0  0  0  0
   30.8300   27.5700   35.6500 C   0  0  0  0  0  0  0  0  0  0  0  0
   31.8500   27.5400   34.6900 C   0  0  0  0  0  0  0  0  0  0  0  0
   31.5100   27.1200   33.4000 C   0  0  0  0  0  0  0  0  0  0  0  0
   30.2200   26.6300   33.1100 C   0  0  0  0  0  0  0  0  0  0  0  0
   29.2400   26.6600   34.1000 C   0  0  0  0  0  0  0  0  0  0  0  0
   27.9300   26.2600   33.8100 C   0  0  0  0  0  0  0  0  0  0  0  0
   27.5200   25.7100   32.6100 N   0  0  0  0  0  0  0  0  0  0  0  0
   31.1563   28.0792   36.9566 N   0  0  0  0  0  0  0  0  0  0  0  0
   30.4671   29.2628   37.4823 C   0  0  0  0  0  0  0  0  0  0  0  0
   31.4482   30.1638   38.2379 C   0  0  0  0  0  0  0  0  0  0  0  0
   32.2179   29.3863   39.2814 C   0  0  0  0  0  0  0  0  0  0  0  0
   32.6747   30.0297   40.4438 C   0  0  0  0  0  0  0  0  0  0  0  0
   32.3906   31.3381   40.6672 F   0  0  0  0  0  0  0  0  0  0  0  0
   33.4369   29.3320   41.3821 C   0  0  0  0  0  0  0  0  0  0  0  0
   33.7621   27.9849   41.1746 C   0  0  0  0  0  0  0  0  0  0  0  0
   33.3415   27.3428   39.9981 C   0  0  0  0  0  0  0  0  0  0  0  0
   33.6813   26.0431   39.7935 F   0  0  0  0  0  0  0  0  0  0  0  0
   32.5691   28.0389   39.0455 C   0  0  0  0  0  0  0  0  0  0  0  0
   32.1039   27.3929   37.7946 C   0  0  0  0  0  0  0  0  0  0  0  0
   32.5341   26.2551   37.4596 O   0  0  0  0  0  0  0  0  0  0  0  0
   34.6023   27.2477   42.1783 C   0  0  0  0  0  0  0  0  0  0  0  0
   24.8907   26.7907   36.3048 H   0  0  0  0  0  0  0  0  0  0  0  0
   23.6981   25.8077   35.4228 H   0  0  0  0  0  0  0  0  0  0  0  0
   32.8495   27.8914   34.9139 H   0  0  0  0  0  0  0  0  0  0  0  0
   32.2651   27.1219   32.6247 H   0  0  0  0  0  0  0  0  0  0  0  0
   30.0113   26.2787   32.1078 H   0  0  0  0  0  0  0  0  0  0  0  0
   27.6978   26.2229   31.7183 H   0  0  0  0  0  0  0  0  0  0  0  0
   27.3414   24.6832   32.5416 H   0  0  0  0  0  0  0  0  0  0  0  0
   30.0081   29.8456   36.6534 H   0  0  0  0  0  0  0  0  0  0  0  0
   29.6576   28.9393   38.1722 H   0  0  0  0  0  0  0  0  0  0  0  0
   32.1696   30.6072   37.5182 H   0  0  0  0  0  0  0  0  0  0  0  0
   30.8725   30.9903   38.7075 H   0  0  0  0  0  0  0  0  0  0  0  0
   33.7781   29.8470   42.2718 H   0  0  0  0  0  0  0  0  0  0  0  0
   34.1660   26.2463   42.3797 H   0  0  0  0  0  0  0  0  0  0  0  0
   35.6310   27.1239   41.7797 H   0  0  0  0  0  0  0  0  0  0  0  0
   34.6565   27.7974   43.1425 H   0  0  0  0  0  0  0  0  0  0  0  0
  1  2  1  0
  2  3  2  0
  2  4  1  0
  4  5  2  0
  5  6  1  0
  6  7  2  0
  7  8  1  0
  8  9  2  0
  9 10  1  0
 10 11  2  0
 11 12  1  0
 12 13  2  0
 13 14  1  0
  8 15  1  0
 15 16  1  0
 16 17  1  0
 17 18  1  0
 18 19  2  0
 19 20  1  0
 19 21  1  0
 21 22  2  0
 22 23  1  0
 23 24  1  0
 23 25  2  0
 25 26  1  0
 26 27  2  0
 22 28  1  0
 13  4  1  0
 26 15  1  0
 12  7  1  0
 25 18  1  0
  1 29  1  0
  1 30  1  0
  9 31  1  0
 10 32  1  0
 11 33  1  0
 14 34  1  0
 14 35  1  0
 16 36  1  0
 16 37  1  0
 17 38  1  0
 17 39  1  0
 21 40  1  0
 28 41  1  0
 28 42  1  0
 28 43  1  0
M  END
$$$$
confid_3
     RDKit          3D

 43 46  0  0  0  0  0  0  0  0999 V2000
   24.6900   26.1200   35.5300 N   0  0  0  0  0  0  0  0  0  0  0  0
   25.6600   25.6700   34.6600 C   0  0  0  0  0  0  0  0  0  0  0  0
   25.2400   25.0100   33.7200 O   0  0  0  0  0  0  0  0  0  0  0  0
   27.0300   26.2200   34.8800 C   0  0  0  0  0  0  0  0  0  0  0  0
   27.3500   26.7300   36.0700 N   0  0  0  0  0  0  0  0  0  0  0  0
   28.5700   27.1800   36.3300 N   0  0  0  0  0  0  0  0  0  0  0  0
   29.5300   27.1100   35.3900 C   0  0  0  0  0  0  0  0  0  0  0  0
   30.8300   27.5700   35.6500 C   0  0  0  0  0  0  0  0  0  0  0  0
   31.8500   27.5400   34.6900 C   0  0  0  0  0  0  0  0  0  0  0  0
   31.5100   27.1200   33.4000 C   0  0  0  0  0  0  0  0  0  0  0  0
   30.2200   26.6300   33.1100 C   0  0  0  0  0  0  0  0  0  0  0  0
   29.2400   26.6600   34.1000 C   0  0  0  0  0  0  0  0  0  0  0  0
   27.9300   26.2600   33.8100 C   0  0  0  0  0  0  0  0  0  0  0  0
   27.5200   25.7100   32.6100 N   0  0  0  0  0  0  0  0  0  0  0  0
   31.1485   28.0523   36.9661 N   0  0  0  0  0  0  0  0  0  0  0  0
   31.3378   27.0897   38.0560 C   0  0  0  0  0  0  0  0  0  0  0  0
   30.9141   27.6993   39.3953 C   0  0  0  0  0  0  0  0  0  0  0  0
   31.5845   29.0337   39.6293 C   0  0  0  0  0  0  0  0  0  0  0  0
   31.8561   29.4663   40.9380 C   0  0  0  0  0  0  0  0  0  0  0  0
   31.5690   28.6740   42.0021 F   0  0  0  0  0  0  0  0  0  0  0  0
   32.4173   30.7245   41.1620 C   0  0  0  0  0  0  0  0  0  0  0  0
   32.7089   31.5750   40.0871 C   0  0  0  0  0  0  0  0  0  0  0  0
   32.4093   31.1654   38.7773 C   0  0  0  0  0  0  0  0  0  0  0  0
   32.6778   32.0035   37.7419 F   0  0  0  0  0  0  0  0  0  0  0  0
   31.8443   29.8952   38.5414 C   0  0  0  0  0  0  0  0  0  0  0  0
   31.5179   29.4283   37.1728 C   0  0  0  0  0  0  0  0  0  0  0  0
   31.5360   30.2308   36.1994 O   0  0  0  0  0  0  0  0  0  0  0  0
   33.2927   32.9362   40.3367 C   0  0  0  0  0  0  0  0  0  0  0  0
   23.6981   25.8078   35.4227 H   0  0  0  0  0  0  0  0  0  0  0  0
   24.8908   26.7904   36.3051 H   0  0  0  0  0  0  0  0  0  0  0  0
   32.8521   27.8814   34.9173 H   0  0  0  0  0  0  0  0  0  0  0  0
   32.2644   27.1248   32.6239 H   0  0  0  0  0  0  0  0  0  0  0  0
   30.0102   26.3030   32.1005 H   0  0  0  0  0  0  0  0  0  0  0  0
   26.6941   26.1028   32.1054 H   0  0  0  0  0  0  0  0  0  0  0  0
   28.1316   25.0435   32.0893 H   0  0  0  0  0  0  0  0  0  0  0  0
   30.7394   26.1701   37.8742 H   0  0  0  0  0  0  0  0  0  0  0  0
   32.4099   26.7988   38.1013 H   0  0  0  0  0  0  0  0  0  0  0  0
   31.1719   26.9812   40.2035 H   0  0  0  0  0  0  0  0  0  0  0  0
   29.8127   27.8472   39.3997 H   0  0  0  0  0  0  0  0  0  0  0  0
   32.6198   31.0378   42.1789 H   0  0  0  0  0  0  0  0  0  0  0  0
   34.1540   33.1110   39.6578 H   0  0  0  0  0  0  0  0  0  0  0  0
   33.6543   33.0375   41.3823 H   0  0  0  0  0  0  0  0  0  0  0  0
   32.5194   33.7106   40.1506 H   0  0  0  0  0  0  0  0  0  0  0  0
  1  2  1  0
  2  3  2  0
  2  4  1  0
  4  5  2  0
  5  6  1  0
  6  7  2  0
  7  8  1  0
  8  9  2  0
  9 10  1  0
 10 11  2  0
 11 12  1  0
 12 13  2  0
 13 14  1  0
  8 15  1  0
 15 16  1  0
 16 17  1  0
 17 18  1  0
 18 19  2  0
 19 20  1  0
 19 21  1  0
 21 22  2  0
 22 23  1  0
 23 24  1  0
 23 25  2  0
 25 26  1  0
 26 27  2  0
 22 28  1  0
 13  4  1  0
 26 15  1  0
 12  7  1  0
 25 18  1  0
  1 29  1  0
  1 30  1  0
  9 31  1  0
 10 32  1  0
 11 33  1  0
 14 34  1  0
 14 35  1  0
 16 36  1  0
 16 37  1  0
 17 38  1  0
 17 39  1  0
 21 40  1  0
 28 41  1  0
 28 42  1  0
 28 43  1  0
M  END
$$$$
confid_4
     RDKit          3D

 43 46  0  0  0  0  0  0  0  0999 V2000
   24.6900   26.1200   35.5300 N   0  0  0  0  0  0  0  0  0  0  0  0
   25.6600   25.6700   34.6600 C   0  0  0  0  0  0  0  0  0  0  0  0
   25.2400   25.0100   33.7200 O   0  0  0  0  0  0  0  0  0  0  0  0
   27.0300   26.2200   34.8800 C   0  0  0  0  0  0  0  0  0  0  0  0
   27.3500   26.7300   36.0700 N   0  0  0  0  0  0  0  0  0  0  0  0
   28.5700   27.1800   36.3300 N   0  0  0  0  0  0  0  0  0  0  0  0
   29.5300   27.1100   35.3900 C   0  0  0  0  0  0  0  0  0  0  0  0
   30.8300   27.5700   35.6500 C   0  0  0  0  0  0  0  0  0  0  0  0
   31.8500   27.5400   34.6900 C   0  0  0  0  0  0  0  0  0  0  0  0
   31.5100   27.1200   33.4000 C   0  0  0  0  0  0  0  0  0  0  0  0
   30.2200   26.6300   33.1100 C   0  0  0  0  0  0  0  0  0  0  0  0
   29.2400   26.6600   34.1000 C   0  0  0  0  0  0  0  0  0  0  0  0
   27.9300   26.2600   33.8100 C   0  0  0  0  0  0  0  0  0  0  0  0
   27.5200   25.7100   32.6100 N   0  0  0  0  0  0  0  0  0  0  0  0
   31.1499   28.0632   36.9645 N   0  0  0  0  0  0  0  0  0  0  0  0
   31.7124   29.4082   37.1207 C   0  0  0  0  0  0  0  0  0  0  0  0
   31.2116   30.0520   38.4167 C   0  0  0  0  0  0  0  0  0  0  0  0
   31.4359   29.1476   39.6071 C   0  0  0  0  0  0  0  0  0  0  0  0
   31.6234   29.7015   40.8845 C   0  0  0  0  0  0  0  0  0  0  0  0
   31.6557   31.0476   41.0565 F   0  0  0  0  0  0  0  0  0  0  0  0
   31.7695   28.8728   41.9977 C   0  0  0  0  0  0  0  0  0  0  0  0
   31.7226   27.4794   41.8582 C   0  0  0  0  0  0  0  0  0  0  0  0
   31.5012   26.9160   40.5907 C   0  0  0  0  0  0  0  0  0  0  0  0
   31.4349   25.5643   40.4686 F   0  0  0  0  0  0  0  0  0  0  0  0
   31.3546   27.7453   39.4593 C   0  0  0  0  0  0  0  0  0  0  0  0
   31.1245   27.1852   38.1056 C   0  0  0  0  0  0  0  0  0  0  0  0
   30.9090   25.9520   37.9483 O   0  0  0  0  0  0  0  0  0  0  0  0
   31.8577   26.5940   43.0640 C   0  0  0  0  0  0  0  0  0  0  0  0
   23.6981   25.8078   35.4227 H   0  0  0  0  0  0  0  0  0  0  0  0
   24.8908   26.7904   36.3051 H   0  0  0  0  0  0  0  0  0  0  0  0
   32.8527   27.8808   34.9149 H   0  0  0  0  0  0  0  0  0  0  0  0
   32.2644   27.1248   32.6239 H   0  0  0  0  0  0  0  0  0  0  0  0
   30.0102   26.3030   32.1005 H   0  0  0  0  0  0  0  0  0  0  0  0
   28.1316   25.0435   32.0893 H   0  0  0  0  0  0  0  0  0  0  0  0
   26.6941   26.1028   32.1054 H   0  0  0  0  0  0  0  0  0  0  0  0
   32.8220   29.3412   37.1409 H   0  0  0  0  0  0  0  0  0  0  0  0
   31.4168   30.0530   36.2638 H   0  0  0  0  0  0  0  0  0  0  0  0
   31.7404   31.0201   38.5528 H   0  0  0  0  0  0  0  0  0  0  0  0
   30.1235   30.2597   38.3270 H   0  0  0  0  0  0  0  0  0  0  0  0
   31.9141   29.3210   42.9731 H   0  0  0  0  0  0  0  0  0  0  0  0
   32.5809   25.7770   42.8571 H   0  0  0  0  0  0  0  0  0  0  0  0
   32.2250   27.1617   43.9455 H   0  0  0  0  0  0  0  0  0  0  0  0
   30.8699   26.1519   43.3114 H   0  0  0  0  0  0  0  0  0  0  0  0
  1  2  1  0
  2  3  2  0
  2  4  1  0
  4  5  2  0
  5  6  1  0
  6  7  2  0
  7  8  1  0
  8  9  2  0
  9 10  1  0
 10 11  2  0
 11 12  1  0
 12 13  2  0
 13 14  1  0
  8 15  1  0
 15 16  1  0
 16 17  1  0
 17 18  1  0
 18 19  2  0
 19 20  1  0
 19 21  1  0
 21 22  2  0
 22 23  1  0
 23 24  1  0
 23 25  2  0
 25 26  1  0
 26 27  2  0
 22 28  1  0
 13  4  1  0
 26 15  1  0
 12  7  1  0
 25 18  1  0
  1 29  1  0
  1 30  1  0
  9 31  1  0
 10 32  1  0
 11 33  1  0
 14 34  1  0
 14 35  1  0
 16 36  1  0
 16 37  1  0
 17 38  1  0
 17 39  1  0
 21 40  1  0
 28 41  1  0
 28 42  1  0
 28 43  1  0
M  END
$$$$
confid_5
     RDKit          3D

 43 46  0  0  0  0  0  0  0  0999 V2000
   24.6900   26.1200   35.5300 N   0  0  0  0  0  0  0  0  0  0  0  0
   25.6600   25.6700   34.6600 C   0  0  0  0  0  0  0  0  0  0  0  0
   25.2400   25.0100   33.7200 O   0  0  0  0  0  0  0  0  0  0  0  0
   27.0300   26.2200   34.8800 C   0  0  0  0  0  0  0  0  0  0  0  0
   27.3500   26.7300   36.0700 N   0  0  0  0  0  0  0  0  0  0  0  0
   28.5700   27.1800   36.3300 N   0  0  0  0  0  0  0  0  0  0  0  0
   29.5300   27.1100   35.3900 C   0  0  0  0  0  0  0  0  0  0  0  0
   30.8300   27.5700   35.6500 C   0  0  0  0  0  0  0  0  0  0  0  0
   31.8500   27.5400   34.6900 C   0  0  0  0  0  0  0  0  0  0  0  0
   31.5100   27.1200   33.4000 C   0  0  0  0  0  0  0  0  0  0  0  0
   30.2200   26.6300   33.1100 C   0  0  0  0  0  0  0  0  0  0  0  0
   29.2400   26.6600   34.1000 C   0  0  0  0  0  0  0  0  0  0  0  0
   27.9300   26.2600   33.8100 C   0  0  0  0  0  0  0  0  0  0  0  0
   27.5200   25.7100   32.6100 N   0  0  0  0  0  0  0  0  0  0  0  0
   31.1465   28.0715   36.9619 N   0  0  0  0  0  0  0  0  0  0  0  0
   32.2323   27.4594   37.7339 C   0  0  0  0  0  0  0  0  0  0  0  0
   31.9024   27.4748   39.2292 C   0  0  0  0  0  0  0  0  0  0  0  0
   31.5167   28.8596   39.6971 C   0  0  0  0  0  0  0  0  0  0  0  0
   31.7533   29.2425   41.0280 C   0  0  0  0  0  0  0  0  0  0  0  0
   32.3730   28.3975   41.8909 F   0  0  0  0  0  0  0  0  0  0  0  0
   31.3442   30.4964   41.4841 C   0  0  0  0  0  0  0  0  0  0  0  0
   30.6855   31.3857   40.6248 C   0  0  0  0  0  0  0  0  0  0  0  0
   30.4135   30.9993   39.3020 C   0  0  0  0  0  0  0  0  0  0  0  0
   29.7543   31.8597   38.4825 F   0  0  0  0  0  0  0  0  0  0  0  0
   30.8249   29.7350   38.8313 C   0  0  0  0  0  0  0  0  0  0  0  0
   30.5590   29.2958   37.4401 C   0  0  0  0  0  0  0  0  0  0  0  0
   29.8260   29.9839   36.6776 O   0  0  0  0  0  0  0  0  0  0  0  0
   30.2278   32.7246   41.1288 C   0  0  0  0  0  0  0  0  0  0  0  0
   24.8908   26.7906   36.3050 H   0  0  0  0  0  0  0  0  0  0  0  0
   23.6981   25.8078   35.4227 H   0  0  0  0  0  0  0  0  0  0  0  0
   32.8494   27.8926   34.9116 H   0  0  0  0  0  0  0  0  0  0  0  0
   32.2636   27.1275   32.6231 H   0  0  0  0  0  0  0  0  0  0  0  0
   30.0100   26.3036   32.1003 H   0  0  0  0  0  0  0  0  0  0  0  0
   26.6941   26.1028   32.1054 H   0  0  0  0  0  0  0  0  0  0  0  0
   28.1317   25.0436   32.0892 H   0  0  0  0  0  0  0  0  0  0  0  0
   33.1735   28.0230   37.5529 H   0  0  0  0  0  0  0  0  0  0  0  0
   32.3887   26.4059   37.4130 H   0  0  0  0  0  0  0  0  0  0  0  0
   31.0546   26.7834   39.4252 H   0  0  0  0  0  0  0  0  0  0  0  0
   32.7896   27.1039   39.7865 H   0  0  0  0  0  0  0  0  0  0  0  0
   31.5377   30.7716   42.5137 H   0  0  0  0  0  0  0  0  0  0  0  0
   30.5184   33.5209   40.4113 H   0  0  0  0  0  0  0  0  0  0  0  0
   29.1233   32.7205   41.2404 H   0  0  0  0  0  0  0  0  0  0  0  0
   30.6846   32.9660   42.1123 H   0  0  0  0  0  0  0  0  0  0  0  0
  1  2  1  0
  2  3  2  0
  2  4  1  0
  4  5  2  0
  5  6  1  0
  6  7  2  0
  7  8  1  0
  8  9  2  0
  9 10  1  0
 10 11  2  0
 11 12  1  0
 12 13  2  0
 13 14  1  0
  8 15  1  0
 15 16  1  0
 16 17  1  0
 17 18  1  0
 18 19  2  0
 19 20  1  0
 19 21  1  0
 21 22  2  0
 22 23  1  0
 23 24  1  0
 23 25  2  0
 25 26  1  0
 26 27  2  0
 22 28  1  0
 13  4  1  0
 26 15  1  0
 12  7  1  0
 25 18  1  0
  1 29  1  0
  1 30  1  0
  9 31  1  0
 10 32  1  0
 11 33  1  0
 14 34  1  0
 14 35  1  0
 16 36  1  0
 16 37  1  0
 17 38  1  0
 17 39  1  0
 21 40  1  0
 28 41  1  0
 28 42  1  0
 28 43  1  0
M  END
$$$$
confid_6
     RDKit          3D

 43 46  0  0  0  0  0  0  0  0999 V2000
   24.6900   26.1200   35.5300 N   0  0  0  0  0  0  0  0  0  0  0  0
   25.6600   25.6700   34.6600 C   0  0  0  0  0  0  0  0  0  0  0  0
   25.2400   25.0100   33.7200 O   0  0  0  0  0  0  0  0  0  0  0  0
   27.0300   26.2200   34.8800 C   0  0  0  0  0  0  0  0  0  0  0  0
   27.3500   26.7300   36.0700 N   0  0  0  0  0  0  0  0  0  0  0  0
   28.5700   27.1800   36.3300 N   0  0  0  0  0  0  0  0  0  0  0  0
   29.5300   27.1100   35.3900 C   0  0  0  0  0  0  0  0  0  0  0  0
   30.8300   27.5700   35.6500 C   0  0  0  0  0  0  0  0  0  0  0  0
   31.8500   27.5400   34.6900 C   0  0  0  0  0  0  0  0  0  0  0  0
   31.5100   27.1200   33.4000 C   0  0  0  0  0  0  0  0  0  0  0  0
   30.2200   26.6300   33.1100 C   0  0  0  0  0  0  0  0  0  0  0  0
   29.2400   26.6600   34.1000 C   0  0  0  0  0  0  0  0  0  0  0  0
   27.9300   26.2600   33.8100 C   0  0  0  0  0  0  0  0  0  0  0  0
   27.5200   25.7100   32.6100 N   0  0  0  0  0  0  0  0  0  0  0  0
   31.1551   28.0640   36.9589 N   0  0  0  0  0  0  0  0  0  0  0  0
   31.8172   27.1708   37.9140 C   0  0  0  0  0  0  0  0  0  0  0  0
   32.7138   27.9646   38.8690 C   0  0  0  0  0  0  0  0  0  0  0  0
   31.9621   29.1095   39.5084 C   0  0  0  0  0  0  0  0  0  0  0  0
   32.3149   29.5557   40.7930 C   0  0  0  0  0  0  0  0  0  0  0  0
   33.2949   28.9334   41.4965 F   0  0  0  0  0  0  0  0  0  0  0  0
   31.6672   30.6545   41.3599 C   0  0  0  0  0  0  0  0  0  0  0  0
   30.6648   31.3321   40.6526 C   0  0  0  0  0  0  0  0  0  0  0  0
   30.3281   30.9140   39.3547 C   0  0  0  0  0  0  0  0  0  0  0  0
   29.3656   31.5854   38.6696 F   0  0  0  0  0  0  0  0  0  0  0  0
   30.9757   29.8037   38.7753 C   0  0  0  0  0  0  0  0  0  0  0  0
   30.6429   29.3309   37.4110 C   0  0  0  0  0  0  0  0  0  0  0  0
   29.9357   30.0372   36.6410 O   0  0  0  0  0  0  0  0  0  0  0  0
   29.9844   32.5255   41.2602 C   0  0  0  0  0  0  0  0  0  0  0  0
   23.6982   25.8076   35.4229 H   0  0  0  0  0  0  0  0  0  0  0  0
   24.8907   26.7907   36.3049 H   0  0  0  0  0  0  0  0  0  0  0  0
   32.8500   27.8879   34.9169 H   0  0  0  0  0  0  0  0  0  0  0  0
   32.2640   27.1262   32.6236 H   0  0  0  0  0  0  0  0  0  0  0  0
   30.0101   26.3033   32.1004 H   0  0  0  0  0  0  0  0  0  0  0  0
   26.6941   26.1028   32.1054 H   0  0  0  0  0  0  0  0  0  0  0  0
   28.1316   25.0435   32.0892 H   0  0  0  0  0  0  0  0  0  0  0  0
   31.0437   26.6242   38.4962 H   0  0  0  0  0  0  0  0  0  0  0  0
   32.4399   26.4219   37.3768 H   0  0  0  0  0  0  0  0  0  0  0  0
   33.1043   27.2680   39.6420 H   0  0  0  0  0  0  0  0  0  0  0  0
   33.5779   28.3766   38.3044 H   0  0  0  0  0  0  0  0  0  0  0  0
   31.9537   30.9810   42.3521 H   0  0  0  0  0  0  0  0  0  0  0  0
   30.3109   33.4465   40.7332 H   0  0  0  0  0  0  0  0  0  0  0  0
   28.8827   32.4229   41.1651 H   0  0  0  0  0  0  0  0  0  0  0  0
   30.2281   32.6275   42.3391 H   0  0  0  0  0  0  0  0  0  0  0  0
  1  2  1  0
  2  3  2  0
  2  4  1  0
  4  5  2  0
  5  6  1  0
  6  7  2  0
  7  8  1  0
  8  9  2  0
  9 10  1  0
 10 11  2  0
 11 12  1  0
 12 13  2  0
 13 14  1  0
  8 15  1  0
 15 16  1  0
 16 17  1  0
 17 18  1  0
 18 19  2  0
 19 20  1  0
 19 21  1  0
 21 22  2  0
 22 23  1  0
 23 24  1  0
 23 25  2  0
 25 26  1  0
 26 27  2  0
 22 28  1  0
 13  4  1  0
 26 15  1  0
 12  7  1  0
 25 18  1  0
  1 29  1  0
  1 30  1  0
  9 31  1  0
 10 32  1  0
 11 33  1  0
 14 34  1  0
 14 35  1  0
 16 36  1  0
 16 37  1  0
 17 38  1  0
 17 39  1  0
 21 40  1  0
 28 41  1  0
 28 42  1  0
 28 43  1  0
M  END
$$$$
