confid_0
     RDKit          3D

 48 51  0  0  0  0  0  0  0  0999 V2000
   24.5700   26.8800   35.5900 N   0  0  0  0  0  0  0  0  0  0  0  0
   25.5000   26.4000   34.6900 C   0  0  0  0  0  0  0  0  0  0  0  0
   25.1700   25.5200   33.9100 O   0  0  0  0  0  0  0  0  0  0  0  0
   26.8400   27.0200   34.7400 C   0  0  0  0  0  0  0  0  0  0  0  0
   27.3800   27.2800   35.9400 N   0  0  0  0  0  0  0  0  0  0  0  0
   28.6200   27.7400   36.0300 N   0  0  0  0  0  0  0  0  0  0  0  0
   29.3800   28.0000   34.9600 C   0  0  0  0  0  0  0  0  0  0  0  0
   30.6700   28.5000   35.1300 C   0  0  0  0  0  0  0  0  0  0  0  0
   31.5400   28.6100   34.0300 C   0  0  0  0  0  0  0  0  0  0  0  0
   31.0900   28.2200   32.7700 C   0  0  0  0  0  0  0  0  0  0  0  0
   29.8000   27.7000   32.6000 C   0  0  0  0  0  0  0  0  0  0  0  0
   28.9600   27.5500   33.7100 C   0  0  0  0  0  0  0  0  0  0  0  0
   27.6600   27.0300   33.5900 C   0  0  0  0  0  0  0  0  0  0  0  0
   27.1600   26.7400   32.3400 N   0  0  0  0  0  0  0  0  0  0  0  0
   23.3350   26.2029   35.8985 C   0  0  0  0  0  0  0  0  0  0  0  0
   23.2740   24.8486   35.7856 N   0  0  0  0  0  0  0  0  0  0  0  0
   22.1690   24.1378   36.1137 C   0  0  0  0  0  0  0  0  0  0  0  0
   21.0477   24.7829   36.6402 C   0  0  0  0  0  0  0  0  0  0  0  0
   19.8090   23.9890   36.9652 C   0  0  0  0  0  0  0  0  0  0  0  0
   19.1138   24.5573   38.1239 N   0  0  0  0  0  0  0  0  0  0  0  0
   19.0494   25.9877   38.2715 C   0  0  0  0  0  0  0  0  0  0  0  0
   18.3018   26.5064   39.1448 O   0  0  0  0  0  0  0  0  0  0  0  0
   19.8425   26.8822   37.3628 C   0  0  0  0  0  0  0  0  0  0  0  0
   21.0648   26.1848   36.7951 C   0  0  0  0  0  0  0  0  0  0  0  0
   22.2014   26.9171   36.3594 C   0  0  0  0  0  0  0  0  0  0  0  0
   22.2148   28.4293   36.3906 C   0  0  0  0  0  0  0  0  0  0  0  0
   18.3940   23.6751   39.0514 C   0  0  0  0  0  0  0  0  0  0  0  0
   19.1461   23.5658   40.3730 C   0  0  0  0  0  0  0  0  0  0  0  0
   24.7882   27.7633   36.1049 H   0  0  0  0  0  0  0  0  0  0  0  0
   31.0179   28.7883   36.1144 H   0  0  0  0  0  0  0  0  0  0  0  0
   32.5424   28.9969   34.1597 H   0  0  0  0  0  0  0  0  0  0  0  0
   31.7487   28.3095   31.9157 H   0  0  0  0  0  0  0  0  0  0  0  0
   29.5077   27.3814   31.6085 H   0  0  0  0  0  0  0  0  0  0  0  0
   26.7451   25.8074   32.1267 H   0  0  0  0  0  0  0  0  0  0  0  0
   27.2452   27.4249   31.5562 H   0  0  0  0  0  0  0  0  0  0  0  0
   22.1735   23.0639   35.9778 H   0  0  0  0  0  0  0  0  0  0  0  0
   19.1296   24.0138   36.0868 H   0  0  0  0  0  0  0  0  0  0  0  0
   20.0794   22.9284   37.1648 H   0  0  0  0  0  0  0  0  0  0  0  0
   19.1924   27.2153   36.5266 H   0  0  0  0  0  0  0  0  0  0  0  0
   20.1489   27.7701   37.9559 H   0  0  0  0  0  0  0  0  0  0  0  0
   22.8541   28.8437   35.5837 H   0  0  0  0  0  0  0  0  0  0  0  0
   22.5879   28.7796   37.3755 H   0  0  0  0  0  0  0  0  0  0  0  0
   21.2044   28.8482   36.2062 H   0  0  0  0  0  0  0  0  0  0  0  0
   17.3679   24.0636   39.2296 H   0  0  0  0  0  0  0  0  0  0  0  0
   18.2853   22.6566   38.6187 H   0  0  0  0  0  0  0  0  0  0  0  0
   19.2203   24.5604   40.8606 H   0  0  0  0  0  0  0  0  0  0  0  0
   18.6058   22.8747   41.0539 H   0  0  0  0  0  0  0  0  0  0  0  0
   20.1684   23.1694   40.1960 H   0  0  0  0  0  0  0  0  0  0  0  0
  1  2  1  0
  2  3  2  0
  2  4  1  0
  4  5  2  0
  5  6  1  0
  6  7  2  0
  7  8  1  0
  8  9  2  0
  9 10  1  0
 10 11  2  0
 11 12  1  0
 12 13  2  0
 13 14  1  0
  1 15  1  0
 15 16  2  0
 16 17  1  0
 17 18  2  0
 18 19  1  0
 19 20  1  0
 20 21  1  0
 21 22  2  0
 21 23  1  0
 23 24  1  0
 24 25  2  0
 25 26  1  0
 20 27  1  0
 27 28  1  0
 13  4  1  0
 25 15  1  0
 12  7  1  0
 24 18  1  0
  1 29  1  0
  8 30  1  0
  9 31  1  0
 10 32  1  0
 11 33  1  0
 14 34  1  0
 14 35  1  0
 17 36  1  0
 19 37  1  0
 19 38  1  0
 23 39  1  0
 23 40  1  0
 26 41  1  0
 26 42  1  0
 26 43  1  0
 27 44  1  0
 27 45  1  0
 28 46  1  0
 28 47  1  0
 28 48  1  0
M  END
$$$$
confid_1
     RDKit          3D

 48 51  0  0  0  0  0  0  0  0999 V2000
   24.5700   26.8800   35.5900 N   0  0  0  0  0  0  0  0  0  0  0  0
   25.5000   26.4000   34.6900 C   0  0  0  0  0  0  0  0  0  0  0  0
   25.1700   25.5200   33.9100 O   0  0  0  0  0  0  0  0  0  0  0  0
   26.8400   27.0200   34.7400 C   0  0  0  0  0  0  0  0  0  0  0  0
   27.3800   27.2800   35.9400 N   0  0  0  0  0  0  0  0  0  0  0  0
   28.6200   27.7400   36.0300 N   0  0  0  0  0  0  0  0  0  0  0  0
   29.3800   28.0000   34.9600 C   0  0  0  0  0  0  0  0  0  0  0  0
   30.6700   28.5000   35.1300 C   0  0  0  0  0  0  0  0  0  0  0  0
   31.5400   28.6100   34.0300 C   0  0  0  0  0  0  0  0  0  0  0  0
   31.0900   28.2200   32.7700 C   0  0  0  0  0  0  0  0  0  0  0  0
   29.8000   27.7000   32.6000 C   0  0  0  0  0  0  0  0  0  0  0  0
   28.9600   27.5500   33.7100 C   0  0  0  0  0  0  0  0  0  0  0  0
   27.6600   27.0300   33.5900 C   0  0  0  0  0  0  0  0  0  0  0  0
   27.1600   26.7400   32.3400 N   0  0  0  0  0  0  0  0  0  0  0  0
   23.1761   26.5103   35.5786 C   0  0  0  0  0  0  0  0  0  0  0  0
   22.5807   26.1924   34.3976 N   0  0  0  0  0  0  0  0  0  0  0  0
   21.2634   25.8937   34.3014 C   0  0  0  0  0  0  0  0  0  0  0  0
   20.4437   25.9547   35.4306 C   0  0  0  0  0  0  0  0  0  0  0  0
   18.9884   25.5798   35.3234 C   0  0  0  0  0  0  0  0  0  0  0  0
   18.1734   26.3799   36.2433 N   0  0  0  0  0  0  0  0  0  0  0  0
   18.6913   26.6875   37.5507 C   0  0  0  0  0  0  0  0  0  0  0  0
   17.9485   27.2111   38.4251 O   0  0  0  0  0  0  0  0  0  0  0  0
   20.1136   26.3569   37.9020 C   0  0  0  0  0  0  0  0  0  0  0  0
   21.0071   26.2974   36.6771 C   0  0  0  0  0  0  0  0  0  0  0  0
   22.4070   26.5193   36.7681 C   0  0  0  0  0  0  0  0  0  0  0  0
   23.0719   26.7693   38.1033 C   0  0  0  0  0  0  0  0  0  0  0  0
   16.7801   26.6906   35.8992 C   0  0  0  0  0  0  0  0  0  0  0  0
   15.8484   25.5928   36.4011 C   0  0  0  0  0  0  0  0  0  0  0  0
   24.8704   27.5962   36.2896 H   0  0  0  0  0  0  0  0  0  0  0  0
   31.0179   28.7883   36.1144 H   0  0  0  0  0  0  0  0  0  0  0  0
   32.5424   28.9969   34.1597 H   0  0  0  0  0  0  0  0  0  0  0  0
   31.7487   28.3095   31.9157 H   0  0  0  0  0  0  0  0  0  0  0  0
   29.5077   27.3813   31.6085 H   0  0  0  0  0  0  0  0  0  0  0  0
   26.7446   25.8077   32.1268 H   0  0  0  0  0  0  0  0  0  0  0  0
   27.2454   27.4248   31.5561 H   0  0  0  0  0  0  0  0  0  0  0  0
   20.8534   25.6229   33.3369 H   0  0  0  0  0  0  0  0  0  0  0  0
   18.6348   25.7180   34.2781 H   0  0  0  0  0  0  0  0  0  0  0  0
   18.8785   24.5055   35.5833 H   0  0  0  0  0  0  0  0  0  0  0  0
   20.4741   27.1403   38.6021 H   0  0  0  0  0  0  0  0  0  0  0  0
   20.1387   25.3746   38.4189 H   0  0  0  0  0  0  0  0  0  0  0  0
   24.1243   26.4175   38.1040 H   0  0  0  0  0  0  0  0  0  0  0  0
   22.5723   26.2025   38.9156 H   0  0  0  0  0  0  0  0  0  0  0  0
   23.0450   27.8539   38.3370 H   0  0  0  0  0  0  0  0  0  0  0  0
   16.6651   26.7887   34.7981 H   0  0  0  0  0  0  0  0  0  0  0  0
   16.4835   27.6661   36.3421 H   0  0  0  0  0  0  0  0  0  0  0  0
   15.9193   25.5013   37.5053 H   0  0  0  0  0  0  0  0  0  0  0  0
   14.8005   25.8397   36.1296 H   0  0  0  0  0  0  0  0  0  0  0  0
   16.1194   24.6212   35.9365 H   0  0  0  0  0  0  0  0  0  0  0  0
  1  2  1  0
  2  3  2  0
  2  4  1  0
  4  5  2  0
  5  6  1  0
  6  7  2  0
  7  8  1  0
  8  9  2  0
  9 10  1  0
 10 11  2  0
 11 12  1  0
 12 13  2  0
 13 14  1  0
  1 15  1  0
 15 16  2  0
 16 17  1  0
 17 18  2  0
 18 19  1  0
 19 20  1  0
 20 21  1  0
 21 22  2  0
 21 23  1  0
 23 24  1  0
 24 25  2  0
 25 26  1  0
 20 27  1  0
 27 28  1  0
 13  4  1  0
 25 15  1  0
 12  7  1  0
 24 18  1  0
  1 29  1  0
  8 30  1  0
  9 31  1  0
 10 32  1  0
 11 33  1  0
 14 34  1  0
 14 35  1  0
 17 36  1  0
 19 37  1  0
 19 38  1  0
 23 39  1  0
 23 40  1  0
 26 41  1  0
 26 42  1  0
 26 43  1  0
 27 44  1  0
 27 45  1  0
 28 46  1  0
 28 47  1  0
 28 48  1  0
M  END
$$$$
confid_2
     RDKit          3D

 48 51  0  0  0  0  0  0  0  0999 V2000
   24.5700   26.8800   35.5900 N   0  0  0  0  0  0  0  0  0  0  0  0
   25.5000   26.4000   34.6900 C   0  0  0  0  0  0  0  0  0  0  0  0
   25.1700   25.5200   33.9100 O   0  0  0  0  0  0  0  0  0  0  0  0
   26.8400   27.0200   34.7400 C   0  0  0  0  0  0  0  0  0  0  0  0
   27.3800   27.2800   35.9400 N   0  0  0  0  0  0  0  0  0  0  0  0
   28.6200   27.7400   36.0300 N   0  0  0  0  0  0  0  0  0  0  0  0
   29.3800   28.0000   34.9600 C   0  0  0  0  0  0  0  0  0  0  0  0
   30.6700   28.5000   35.1300 C   0  0  0  0  0  0  0  0  0  0  0  0
   31.5400   28.6100   34.0300 C   0  0  0  0  0  0  0  0  0  0  0  0
   31.0900   28.2200   32.7700 C   0  0  0  0  0  0  0  0  0  0  0  0
   29.8000   27.7000   32.6000 C   0  0  0  0  0  0  0  0  0  0  0  0
   28.9600   27.5500   33.7100 C   0  0  0  0  0  0  0  0  0  0  0  0
   27.6600   27.0300   33.5900 C   0  0  0  0  0  0  0  0  0  0  0  0
   27.1600   26.7400   32.3400 N   0  0  0  0  0  0  0  0  0  0  0  0
   23.1761   26.5100   35.5798 C   0  0  0  0  0  0  0  0  0  0  0  0
   22.5815   26.1852   34.4002 N   0  0  0  0  0  0  0  0  0  0  0  0
   21.2643   25.8860   34.3049 C   0  0  0  0  0  0  0  0  0  0  0  0
   20.4436   25.9538   35.4331 C   0  0  0  0  0  0  0  0  0  0  0  0
   18.9885   25.5782   35.3261 C   0  0  0  0  0  0  0  0  0  0  0  0
   18.1736   26.3820   36.2420 N   0  0  0  0  0  0  0  0  0  0  0  0
   18.6890   26.6946   37.5491 C   0  0  0  0  0  0  0  0  0  0  0  0
   17.9421   27.2148   38.4221 O   0  0  0  0  0  0  0  0  0  0  0  0
   20.1123   26.3714   37.9024 C   0  0  0  0  0  0  0  0  0  0  0  0
   21.0062   26.3037   36.6781 C   0  0  0  0  0  0  0  0  0  0  0  0
   22.4060   26.5265   36.7687 C   0  0  0  0  0  0  0  0  0  0  0  0
   23.0701   26.7876   38.1024 C   0  0  0  0  0  0  0  0  0  0  0  0
   16.8044   26.7578   35.8666 C   0  0  0  0  0  0  0  0  0  0  0  0
   16.7334   28.2438   35.5331 C   0  0  0  0  0  0  0  0  0  0  0  0
   24.8704   27.5981   36.2877 H   0  0  0  0  0  0  0  0  0  0  0  0
   31.0177   28.7888   36.1143 H   0  0  0  0  0  0  0  0  0  0  0  0
   32.5416   28.9991   34.1593 H   0  0  0  0  0  0  0  0  0  0  0  0
   31.7454   28.3189   31.9142 H   0  0  0  0  0  0  0  0  0  0  0  0
   29.5014   27.4244   31.5992 H   0  0  0  0  0  0  0  0  0  0  0  0
   26.1709   26.9651   32.0922 H   0  0  0  0  0  0  0  0  0  0  0  0
   27.7097   26.1834   31.6492 H   0  0  0  0  0  0  0  0  0  0  0  0
   20.8550   25.6094   33.3417 H   0  0  0  0  0  0  0  0  0  0  0  0
   18.8777   24.5047   35.5893 H   0  0  0  0  0  0  0  0  0  0  0  0
   18.6363   25.7171   34.2799 H   0  0  0  0  0  0  0  0  0  0  0  0
   20.1409   25.3943   38.4291 H   0  0  0  0  0  0  0  0  0  0  0  0
   20.4703   27.1633   38.5945 H   0  0  0  0  0  0  0  0  0  0  0  0
   24.1205   26.4301   38.1079 H   0  0  0  0  0  0  0  0  0  0  0  0
   22.5671   26.2327   38.9208 H   0  0  0  0  0  0  0  0  0  0  0  0
   23.0490   27.8751   38.3238 H   0  0  0  0  0  0  0  0  0  0  0  0
   16.4679   26.1773   34.9799 H   0  0  0  0  0  0  0  0  0  0  0  0
   16.1026   26.5209   36.6954 H   0  0  0  0  0  0  0  0  0  0  0  0
   17.0068   28.8539   36.4193 H   0  0  0  0  0  0  0  0  0  0  0  0
   15.7003   28.5080   35.2236 H   0  0  0  0  0  0  0  0  0  0  0  0
   17.4293   28.4790   34.6999 H   0  0  0  0  0  0  0  0  0  0  0  0
  1  2  1  0
  2  3  2  0
  2  4  1  0
  4  5  2  0
  5  6  1  0
  6  7  2  0
  7  8  1  0
  8  9  2  0
  9 10  1  0
 10 11  2  0
 11 12  1  0
 12 13  2  0
 13 14  1  0
  1 15  1  0
 15 16  2  0
 16 17  1  0
 17 18  2  0
 18 19  1  0
 19 20  1  0
 20 21  1  0
 21 22  2  0
 21 23  1  0
 23 24  1  0
 24 25  2  0
 25 26  1  0
 20 27  1  0
 27 28  1  0
 13  4  1  0
 25 15  1  0
 12  7  1  0
 24 18  1  0
  1 29  1  0
  8 30  1  0
  9 31  1  0
 10 32  1  0
 11 33  1  0
 14 34  1  0
 14 35  1  0
 17 36  1  0
 19 37  1  0
 19 38  1  0
 23 39  1  0
 23 40  1  0
 26 41  1  0
 26 42  1  0
 26 43  1  0
 27 44  1  0
 27 45  1  0
 28 46  1  0
 28 47  1  0
 28 48  1  0
M  END
$$$$
confid_3
     RDKit          3D

 48 51  0  0  0  0  0  0  0  0999 V2000
   24.5700   26.8800   35.5900 N   0  0  0  0  0  0  0  0  0  0  0  0
   25.5000   26.4000   34.6900 C   0  0  0  0  0  0  0  0  0  0  0  0
   25.1700   25.5200   33.9100 O   0  0  0  0  0  0  0  0  0  0  0  0
   26.8400   27.0200   34.7400 C   0  0  0  0  0  0  0  0  0  0  0  0
   27.3800   27.2800   35.9400 N   0  0  0  0  0  0  0  0  0  0  0  0
   28.6200   27.7400   36.0300 N   0  0  0  0  0  0  0  0  0  0  0  0
   29.3800   28.0000   34.9600 C   0  0  0  0  0  0  0  0  0  0  0  0
   30.6700   28.5000   35.1300 C   0  0  0  0  0  0  0  0  0  0  0  0
   31.5400   28.6100   34.0300 C   0  0  0  0  0  0  0  0  0  0  0  0
   31.0900   28.2200   32.7700 C   0  0  0  0  0  0  0  0  0  0  0  0
   29.8000   27.7000   32.6000 C   0  0  0  0  0  0  0  0  0  0  0  0
   28.9600   27.5500   33.7100 C   0  0  0  0  0  0  0  0  0  0  0  0
   27.6600   27.0300   33.5900 C   0  0  0  0  0  0  0  0  0  0  0  0
   27.1600   26.7400   32.3400 N   0  0  0  0  0  0  0  0  0  0  0  0
   23.3337   26.2040   35.8958 C   0  0  0  0  0  0  0  0  0  0  0  0
   23.2728   24.8494   35.7856 N   0  0  0  0  0  0  0  0  0  0  0  0
   22.1659   24.1398   36.1095 C   0  0  0  0  0  0  0  0  0  0  0  0
   21.0420   24.7865   36.6285 C   0  0  0  0  0  0  0  0  0  0  0  0
   19.7998   23.9943   36.9444 C   0  0  0  0  0  0  0  0  0  0  0  0
   19.0928   24.5638   38.0962 N   0  0  0  0  0  0  0  0  0  0  0  0
   19.0386   25.9943   38.2491 C   0  0  0  0  0  0  0  0  0  0  0  0
   18.2998   26.5151   39.1287 O   0  0  0  0  0  0  0  0  0  0  0  0
   19.8340   26.8868   37.3405 C   0  0  0  0  0  0  0  0  0  0  0  0
   21.0589   26.1885   36.7803 C   0  0  0  0  0  0  0  0  0  0  0  0
   22.1983   26.9196   36.3498 C   0  0  0  0  0  0  0  0  0  0  0  0
   22.2118   28.4318   36.3771 C   0  0  0  0  0  0  0  0  0  0  0  0
   18.2942   23.6890   38.9645 C   0  0  0  0  0  0  0  0  0  0  0  0
   16.8598   23.5960   38.4552 C   0  0  0  0  0  0  0  0  0  0  0  0
   24.7879   27.7632   36.1052 H   0  0  0  0  0  0  0  0  0  0  0  0
   31.0178   28.7889   36.1143 H   0  0  0  0  0  0  0  0  0  0  0  0
   32.5416   28.9991   34.1594 H   0  0  0  0  0  0  0  0  0  0  0  0
   31.7454   28.3189   31.9142 H   0  0  0  0  0  0  0  0  0  0  0  0
   29.5013   27.4244   31.5992 H   0  0  0  0  0  0  0  0  0  0  0  0
   26.1710   26.9652   32.0921 H   0  0  0  0  0  0  0  0  0  0  0  0
   27.7098   26.1835   31.6492 H   0  0  0  0  0  0  0  0  0  0  0  0
   22.1704   23.0657   35.9752 H   0  0  0  0  0  0  0  0  0  0  0  0
   20.0661   22.9334   37.1448 H   0  0  0  0  0  0  0  0  0  0  0  0
   19.1287   24.0181   36.0597 H   0  0  0  0  0  0  0  0  0  0  0  0
   19.1866   27.2156   36.5005 H   0  0  0  0  0  0  0  0  0  0  0  0
   20.1368   27.7775   37.9311 H   0  0  0  0  0  0  0  0  0  0  0  0
   22.5780   28.7849   37.3634 H   0  0  0  0  0  0  0  0  0  0  0  0
   21.2026   28.8501   36.1847 H   0  0  0  0  0  0  0  0  0  0  0  0
   22.8564   28.8442   35.5736 H   0  0  0  0  0  0  0  0  0  0  0  0
   18.2985   24.0758   40.0066 H   0  0  0  0  0  0  0  0  0  0  0  0
   18.7333   22.6684   38.9975 H   0  0  0  0  0  0  0  0  0  0  0  0
   16.2729   22.9218   39.1139 H   0  0  0  0  0  0  0  0  0  0  0  0
   16.8476   23.1873   37.4225 H   0  0  0  0  0  0  0  0  0  0  0  0
   16.3838   24.5991   38.4558 H   0  0  0  0  0  0  0  0  0  0  0  0
  1  2  1  0
  2  3  2  0
  2  4  1  0
  4  5  2  0
  5  6  1  0
  6  7  2  0
  7  8  1  0
  8  9  2  0
  9 10  1  0
 10 11  2  0
 11 12  1  0
 12 13  2  0
 13 14  1  0
  1 15  1  0
 15 16  2  0
 16 17  1  0
 17 18  2  0
 18 19  1  0
 19 20  1  0
 20 21  1  0
 21 22  2  0
 21 23  1  0
 23 24  1  0
 24 25  2  0
 25 26  1  0
 20 27  1  0
 27 28  1  0
 13  4  1  0
 25 15  1  0
 12  7  1  0
 24 18  1  0
  1 29  1  0
  8 30  1  0
  9 31  1  0
 10 32  1  0
 11 33  1  0
 14 34  1  0
 14 35  1  0
 17 36  1  0
 19 37  1  0
 19 38  1  0
 23 39  1  0
 23 40  1  0
 26 41  1  0
 26 42  1  0
 26 43  1  0
 27 44  1  0
 27 45  1  0
 28 46  1  0
 28 47  1  0
 28 48  1  0
M  END
$$$$
