confid_0
     RDKit          3D

 47 50  0  0  0  0  0  0  0  0999 V2000
   24.2000   26.2400   35.6900 N   0  0  0  0  0  0  0  0  0  0  0  0
   24.8500   26.2800   34.4800 C   0  0  0  0  0  0  0  0  0  0  0  0
   24.3100   25.7400   33.5400 O   0  0  0  0  0  0  0  0  0  0  0  0
   26.1800   26.9700   34.4700 C   0  0  0  0  0  0  0  0  0  0  0  0
   26.6500   27.6000   35.5500 N   0  0  0  0  0  0  0  0  0  0  0  0
   27.7900   28.2700   35.6200 N   0  0  0  0  0  0  0  0  0  0  0  0
   28.5400   28.3000   34.5100 C   0  0  0  0  0  0  0  0  0  0  0  0
   29.7700   28.9400   34.5600 C   0  0  0  0  0  0  0  0  0  0  0  0
   30.7000   28.8900   33.5000 C   0  0  0  0  0  0  0  0  0  0  0  0
   30.3700   28.1400   32.3700 C   0  0  0  0  0  0  0  0  0  0  0  0
   29.1200   27.5200   32.2800 C   0  0  0  0  0  0  0  0  0  0  0  0
   28.2100   27.6100   33.3300 C   0  0  0  0  0  0  0  0  0  0  0  0
   26.9700   26.9700   33.3100 C   0  0  0  0  0  0  0  0  0  0  0  0
   26.5300   26.2400   32.2200 N   0  0  0  0  0  0  0  0  0  0  0  0
   30.1432   29.6751   35.7415 N   0  0  0  0  0  0  0  0  0  0  0  0
   29.4042   30.8946   36.0861 C   0  0  0  0  0  0  0  0  0  0  0  0
   30.3795   31.9798   36.5329 C   0  0  0  0  0  0  0  0  0  0  0  0
   31.2153   31.4810   37.6332 N   0  0  0  0  0  0  0  0  0  0  0  0
   31.4585   32.3280   38.8064 C   0  0  0  0  0  0  0  0  0  0  0  0
   31.7615   30.1429   37.5434 C   0  0  0  0  0  0  0  0  0  0  0  0
   32.8051   29.7159   38.3859 C   0  0  0  0  0  0  0  0  0  0  0  0
   33.3155   28.4206   38.2853 C   0  0  0  0  0  0  0  0  0  0  0  0
   34.3247   28.0346   39.1057 F   0  0  0  0  0  0  0  0  0  0  0  0
   32.7944   27.5216   37.3510 C   0  0  0  0  0  0  0  0  0  0  0  0
   31.7482   27.9362   36.5079 C   0  0  0  0  0  0  0  0  0  0  0  0
   31.2312   29.2437   36.5922 C   0  0  0  0  0  0  0  0  0  0  0  0
   33.3387   26.2293   37.2923 O   0  0  0  0  0  0  0  0  0  0  0  0
   32.9106   25.2144   36.3897 C   0  0  0  0  0  0  0  0  0  0  0  0
   23.2681   25.7737   35.7694 H   0  0  0  0  0  0  0  0  0  0  0  0
   24.5989   26.6538   36.5617 H   0  0  0  0  0  0  0  0  0  0  0  0
   31.6572   29.3916   33.5689 H   0  0  0  0  0  0  0  0  0  0  0  0
   31.0736   28.0603   31.5514 H   0  0  0  0  0  0  0  0  0  0  0  0
   28.8953   26.9544   31.3856 H   0  0  0  0  0  0  0  0  0  0  0  0
   26.6264   26.6231   31.2536 H   0  0  0  0  0  0  0  0  0  0  0  0
   26.3242   25.2204   32.3142 H   0  0  0  0  0  0  0  0  0  0  0  0
   28.6917   30.6727   36.9097 H   0  0  0  0  0  0  0  0  0  0  0  0
   28.8263   31.2652   35.2106 H   0  0  0  0  0  0  0  0  0  0  0  0
   31.0342   32.2555   35.6779 H   0  0  0  0  0  0  0  0  0  0  0  0
   29.8041   32.8821   36.8322 H   0  0  0  0  0  0  0  0  0  0  0  0
   30.8711   33.2690   38.7618 H   0  0  0  0  0  0  0  0  0  0  0  0
   32.5328   32.6023   38.8567 H   0  0  0  0  0  0  0  0  0  0  0  0
   31.1666   31.7844   39.7298 H   0  0  0  0  0  0  0  0  0  0  0  0
   33.2372   30.3807   39.1207 H   0  0  0  0  0  0  0  0  0  0  0  0
   31.3266   27.2407   35.7969 H   0  0  0  0  0  0  0  0  0  0  0  0
   33.0574   25.5491   35.3409 H   0  0  0  0  0  0  0  0  0  0  0  0
   33.5157   24.3003   36.5587 H   0  0  0  0  0  0  0  0  0  0  0  0
   31.8418   24.9709   36.5677 H   0  0  0  0  0  0  0  0  0  0  0  0
  1  2  1  0
  2  3  2  0
  2  4  1  0
  4  5  2  0
  5  6  1  0
  6  7  2  0
  7  8  1  0
  8  9  2  0
  9 10  1  0
 10 11  2  0
 11 12  1  0
 12 13  2  0
 13 14  1  0
  8 15  1  0
 15 16  1  0
 16 17  1  0
 17 18  1  0
 18 19  1  0
 18 20  1  0
 20 21  2  0
 21 22  1  0
 22 23  1  0
 22 24  2  0
 24 25  1  0
 25 26  2  0
 24 27  1  0
 27 28  1  0
 13  4  1  0
 26 15  1  0
 12  7  1  0
 26 20  1  0
  1 29  1  0
  1 30  1  0
  9 31  1  0
 10 32  1  0
 11 33  1  0
 14 34  1  0
 14 35  1  0
 16 36  1  0
 16 37  1  0
 17 38  1  0
 17 39  1  0
 19 40  1  0
 19 41  1  0
 19 42  1  0
 21 43  1  0
 25 44  1  0
 28 45  1  0
 28 46  1  0
 28 47  1  0
M  END
$$$$
confid_1
     RDKit          3D

 47 50  0  0  0  0  0  0  0  0999 V2000
   24.2000   26.2400   35.6900 N   0  0  0  0  0  0  0  0  0  0  0  0
   24.8500   26.2800   34.4800 C   0  0  0  0  0  0  0  0  0  0  0  0
   24.3100   25.7400   33.5400 O   0  0  0  0  0  0  0  0  0  0  0  0
   26.1800   26.9700   34.4700 C   0  0  0  0  0  0  0  0  0  0  0  0
   26.6500   27.6000   35.5500 N   0  0  0  0  0  0  0  0  0  0  0  0
   27.7900   28.2700   35.6200 N   0  0  0  0  0  0  0  0  0  0  0  0
   28.5400   28.3000   34.5100 C   0  0  0  0  0  0  0  0  0  0  0  0
   29.7700   28.9400   34.5600 C   0  0  0  0  0  0  0  0  0  0  0  0
   30.7000   28.8900   33.5000 C   0  0  0  0  0  0  0  0  0  0  0  0
   30.3700   28.1400   32.3700 C   0  0  0  0  0  0  0  0  0  0  0  0
   29.1200   27.5200   32.2800 C   0  0  0  0  0  0  0  0  0  0  0  0
   28.2100   27.6100   33.3300 C   0  0  0  0  0  0  0  0  0  0  0  0
   26.9700   26.9700   33.3100 C   0  0  0  0  0  0  0  0  0  0  0  0
   26.5300   26.2400   32.2200 N   0  0  0  0  0  0  0  0  0  0  0  0
   30.1418   29.6745   35.7387 N   0  0  0  0  0  0  0  0  0  0  0  0
   30.8488   28.9567   36.8057 C   0  0  0  0  0  0  0  0  0  0  0  0
   31.7913   29.9034   37.5430 C   0  0  0  0  0  0  0  0  0  0  0  0
   31.0470   31.0770   38.0165 N   0  0  0  0  0  0  0  0  0  0  0  0
   31.1967   31.5353   39.4021 C   0  0  0  0  0  0  0  0  0  0  0  0
   30.1416   31.7337   37.0998 C   0  0  0  0  0  0  0  0  0  0  0  0
   29.6979   33.0504   37.3233 C   0  0  0  0  0  0  0  0  0  0  0  0
   28.8378   33.6735   36.4178 C   0  0  0  0  0  0  0  0  0  0  0  0
   28.4273   34.9456   36.6526 F   0  0  0  0  0  0  0  0  0  0  0  0
   28.4024   33.0001   35.2734 C   0  0  0  0  0  0  0  0  0  0  0  0
   28.8403   31.6834   35.0411 C   0  0  0  0  0  0  0  0  0  0  0  0
   29.7013   31.0386   35.9523 C   0  0  0  0  0  0  0  0  0  0  0  0
   27.5362   33.6691   34.3949 O   0  0  0  0  0  0  0  0  0  0  0  0
   27.0040   33.1038   33.2011 C   0  0  0  0  0  0  0  0  0  0  0  0
   24.5991   26.6533   36.5618 H   0  0  0  0  0  0  0  0  0  0  0  0
   23.2678   25.7743   35.7693 H   0  0  0  0  0  0  0  0  0  0  0  0
   31.6570   29.3915   33.5705 H   0  0  0  0  0  0  0  0  0  0  0  0
   31.0734   28.0606   31.5513 H   0  0  0  0  0  0  0  0  0  0  0  0
   28.8952   26.9546   31.3855 H   0  0  0  0  0  0  0  0  0  0  0  0
   26.3241   25.2204   32.3141 H   0  0  0  0  0  0  0  0  0  0  0  0
   26.6264   26.6232   31.2536 H   0  0  0  0  0  0  0  0  0  0  0  0
   30.1063   28.5393   37.5205 H   0  0  0  0  0  0  0  0  0  0  0  0
   31.4414   28.1149   36.3829 H   0  0  0  0  0  0  0  0  0  0  0  0
   32.5901   30.2387   36.8457 H   0  0  0  0  0  0  0  0  0  0  0  0
   32.2739   29.3567   38.3816 H   0  0  0  0  0  0  0  0  0  0  0  0
   31.7025   32.5232   39.4192 H   0  0  0  0  0  0  0  0  0  0  0  0
   31.8075   30.8292   40.0030 H   0  0  0  0  0  0  0  0  0  0  0  0
   30.1979   31.6180   39.8812 H   0  0  0  0  0  0  0  0  0  0  0  0
   30.0221   33.6084   38.1908 H   0  0  0  0  0  0  0  0  0  0  0  0
   28.5063   31.1604   34.1573 H   0  0  0  0  0  0  0  0  0  0  0  0
   26.3465   33.8494   32.7090 H   0  0  0  0  0  0  0  0  0  0  0  0
   26.4018   32.2019   33.4411 H   0  0  0  0  0  0  0  0  0  0  0  0
   27.8268   32.8399   32.5031 H   0  0  0  0  0  0  0  0  0  0  0  0
  1  2  1  0
  2  3  2  0
  2  4  1  0
  4  5  2  0
  5  6  1  0
  6  7  2  0
  7  8  1  0
  8  9  2  0
  9 10  1  0
 10 11  2  0
 11 12  1  0
 12 13  2  0
 13 14  1  0
  8 15  1  0
 15 16  1  0
 16 17  1  0
 17 18  1  0
 18 19  1  0
 18 20  1  0
 20 21  2  0
 21 22  1  0
 22 23  1  0
 22 24  2  0
 24 25  1  0
 25 26  2  0
 24 27  1  0
 27 28  1  0
 13  4  1  0
 26 15  1  0
 12  7  1  0
 26 20  1  0
  1 29  1  0
  1 30  1  0
  9 31  1  0
 10 32  1  0
 11 33  1  0
 14 34  1  0
 14 35  1  0
 16 36  1  0
 16 37  1  0
 17 38  1  0
 17 39  1  0
 19 40  1  0
 19 41  1  0
 19 42  1  0
 21 43  1  0
 25 44  1  0
 28 45  1  0
 28 46  1  0
 28 47  1  0
M  END
$$$$
confid_2
     RDKit          3D

 47 50  0  0  0  0  0  0  0  0999 V2000
   24.2000   26.2400   35.6900 N   0  0  0  0  0  0  0  0  0  0  0  0
   24.8500   26.2800   34.4800 C   0  0  0  0  0  0  0  0  0  0  0  0
   24.3100   25.7400   33.5400 O   0  0  0  0  0  0  0  0  0  0  0  0
   26.1800   26.9700   34.4700 C   0  0  0  0  0  0  0  0  0  0  0  0
   26.6500   27.6000   35.5500 N   0  0  0  0  0  0  0  0  0  0  0  0
   27.7900   28.2700   35.6200 N   0  0  0  0  0  0  0  0  0  0  0  0
   28.5400   28.3000   34.5100 C   0  0  0  0  0  0  0  0  0  0  0  0
   29.7700   28.9400   34.5600 C   0  0  0  0  0  0  0  0  0  0  0  0
   30.7000   28.8900   33.5000 C   0  0  0  0  0  0  0  0  0  0  0  0
   30.3700   28.1400   32.3700 C   0  0  0  0  0  0  0  0  0  0  0  0
   29.1200   27.5200   32.2800 C   0  0  0  0  0  0  0  0  0  0  0  0
   28.2100   27.6100   33.3300 C   0  0  0  0  0  0  0  0  0  0  0  0
   26.9700   26.9700   33.3100 C   0  0  0  0  0  0  0  0  0  0  0  0
   26.5300   26.2400   32.2200 N   0  0  0  0  0  0  0  0  0  0  0  0
   30.1367   29.6795   35.7421 N   0  0  0  0  0  0  0  0  0  0  0  0
   31.3186   29.2589   36.5020 C   0  0  0  0  0  0  0  0  0  0  0  0
   31.0445   29.3914   37.9971 C   0  0  0  0  0  0  0  0  0  0  0  0
   30.6173   30.7614   38.3097 N   0  0  0  0  0  0  0  0  0  0  0  0
   31.1774   31.4516   39.4772 C   0  0  0  0  0  0  0  0  0  0  0  0
   29.6640   31.4118   37.4352 C   0  0  0  0  0  0  0  0  0  0  0  0
   28.9790   32.5761   37.8307 C   0  0  0  0  0  0  0  0  0  0  0  0
   28.0668   33.1912   36.9717 C   0  0  0  0  0  0  0  0  0  0  0  0
   27.4142   34.3085   37.3793 F   0  0  0  0  0  0  0  0  0  0  0  0
   27.8237   32.6670   35.6997 C   0  0  0  0  0  0  0  0  0  0  0  0
   28.5089   31.5093   35.2911 C   0  0  0  0  0  0  0  0  0  0  0  0
   29.4215   30.8698   36.1534 C   0  0  0  0  0  0  0  0  0  0  0  0
   26.8984   33.3228   34.8729 O   0  0  0  0  0  0  0  0  0  0  0  0
   26.5422   32.8936   33.5625 C   0  0  0  0  0  0  0  0  0  0  0  0
   24.5983   26.6549   36.5615 H   0  0  0  0  0  0  0  0  0  0  0  0
   23.2680   25.7739   35.7693 H   0  0  0  0  0  0  0  0  0  0  0  0
   31.6557   29.3947   33.5655 H   0  0  0  0  0  0  0  0  0  0  0  0
   31.0729   28.0615   31.5507 H   0  0  0  0  0  0  0  0  0  0  0  0
   28.8951   26.9548   31.3854 H   0  0  0  0  0  0  0  0  0  0  0  0
   26.6262   26.6232   31.2536 H   0  0  0  0  0  0  0  0  0  0  0  0
   26.3242   25.2204   32.3141 H   0  0  0  0  0  0  0  0  0  0  0  0
   32.1835   29.8977   36.2207 H   0  0  0  0  0  0  0  0  0  0  0  0
   31.5737   28.1998   36.2759 H   0  0  0  0  0  0  0  0  0  0  0  0
   30.2336   28.6865   38.2824 H   0  0  0  0  0  0  0  0  0  0  0  0
   31.9608   29.1097   38.5592 H   0  0  0  0  0  0  0  0  0  0  0  0
   31.9782   30.8546   39.9614 H   0  0  0  0  0  0  0  0  0  0  0  0
   31.6146   32.4236   39.1657 H   0  0  0  0  0  0  0  0  0  0  0  0
   30.3809   31.6232   40.2310 H   0  0  0  0  0  0  0  0  0  0  0  0
   29.1373   33.0129   38.8067 H   0  0  0  0  0  0  0  0  0  0  0  0
   28.3407   31.1119   34.3011 H   0  0  0  0  0  0  0  0  0  0  0  0
   26.1037   31.8739   33.6006 H   0  0  0  0  0  0  0  0  0  0  0  0
   27.4348   32.9020   32.9020 H   0  0  0  0  0  0  0  0  0  0  0  0
   25.7862   33.5901   33.1459 H   0  0  0  0  0  0  0  0  0  0  0  0
  1  2  1  0
  2  3  2  0
  2  4  1  0
  4  5  2  0
  5  6  1  0
  6  7  2  0
  7  8  1  0
  8  9  2  0
  9 10  1  0
 10 11  2  0
 11 12  1  0
 12 13  2  0
 13 14  1  0
  8 15  1  0
 15 16  1  0
 16 17  1  0
 17 18  1  0
 18 19  1  0
 18 20  1  0
 20 21  2  0
 21 22  1  0
 22 23  1  0
 22 24  2  0
 24 25  1  0
 25 26  2  0
 24 27  1  0
 27 28  1  0
 13  4  1  0
 26 15  1  0
 12  7  1  0
 26 20  1  0
  1 29  1  0
  1 30  1  0
  9 31  1  0
 10 32  1  0
 11 33  1  0
 14 34  1  0
 14 35  1  0
 16 36  1  0
 16 37  1  0
 17 38  1  0
 17 39  1  0
 19 40  1  0
 19 41  1  0
 19 42  1  0
 21 43  1  0
 25 44  1  0
 28 45  1  0
 28 46  1  0
 28 47  1  0
M  END
$$$$
confid_3
     RDKit          3D

 47 50  0  0  0  0  0  0  0  0999 V2000
   24.2000   26.2400   35.6900 N   0  0  0  0  0  0  0  0  0  0  0  0
   24.8500   26.2800   34.4800 C   0  0  0  0  0  0  0  0  0  0  0  0
   24.3100   25.7400   33.5400 O   0  0  0  0  0  0  0  0  0  0  0  0
   26.1800   26.9700   34.4700 C   0  0  0  0  0  0  0  0  0  0  0  0
   26.6500   27.6000   35.5500 N   0  0  0  0  0  0  0  0  0  0  0  0
   27.7900   28.2700   35.6200 N   0  0  0  0  0  0  0  0  0  0  0  0
   28.5400   28.3000   34.5100 C   0  0  0  0  0  0  0  0  0  0  0  0
   29.7700   28.9400   34.5600 C   0  0  0  0  0  0  0  0  0  0  0  0
   30.7000   28.8900   33.5000 C   0  0  0  0  0  0  0  0  0  0  0  0
   30.3700   28.1400   32.3700 C   0  0  0  0  0  0  0  0  0  0  0  0
   29.1200   27.5200   32.2800 C   0  0  0  0  0  0  0  0  0  0  0  0
   28.2100   27.6100   33.3300 C   0  0  0  0  0  0  0  0  0  0  0  0
   26.9700   26.9700   33.3100 C   0  0  0  0  0  0  0  0  0  0  0  0
   26.5300   26.2400   32.2200 N   0  0  0  0  0  0  0  0  0  0  0  0
   30.1409   29.6798   35.7393 N   0  0  0  0  0  0  0  0  0  0  0  0
   29.3966   30.8969   36.0814 C   0  0  0  0  0  0  0  0  0  0  0  0
   30.3672   31.9877   36.5244 C   0  0  0  0  0  0  0  0  0  0  0  0
   31.2066   31.4954   37.6249 N   0  0  0  0  0  0  0  0  0  0  0  0
   31.4460   32.3457   38.7965 C   0  0  0  0  0  0  0  0  0  0  0  0
   31.7590   30.1596   37.5372 C   0  0  0  0  0  0  0  0  0  0  0  0
   32.8053   29.7392   38.3787 C   0  0  0  0  0  0  0  0  0  0  0  0
   33.3255   28.4461   38.2849 C   0  0  0  0  0  0  0  0  0  0  0  0
   34.3362   28.1019   39.1203 F   0  0  0  0  0  0  0  0  0  0  0  0
   32.7987   27.5377   37.3433 C   0  0  0  0  0  0  0  0  0  0  0  0
   31.7565   27.9530   36.5087 C   0  0  0  0  0  0  0  0  0  0  0  0
   31.2324   29.2567   36.5895 C   0  0  0  0  0  0  0  0  0  0  0  0
   33.2623   26.2198   37.1920 O   0  0  0  0  0  0  0  0  0  0  0  0
   34.3087   25.6175   37.9457 C   0  0  0  0  0  0  0  0  0  0  0  0
   23.2681   25.7737   35.7694 H   0  0  0  0  0  0  0  0  0  0  0  0
   24.5988   26.6538   36.5617 H   0  0  0  0  0  0  0  0  0  0  0  0
   31.6566   29.3927   33.5683 H   0  0  0  0  0  0  0  0  0  0  0  0
   31.0734   28.0606   31.5512 H   0  0  0  0  0  0  0  0  0  0  0  0
   28.8952   26.9545   31.3855 H   0  0  0  0  0  0  0  0  0  0  0  0
   26.6264   26.6231   31.2536 H   0  0  0  0  0  0  0  0  0  0  0  0
   26.3242   25.2204   32.3142 H   0  0  0  0  0  0  0  0  0  0  0  0
   28.8162   31.2625   35.2055 H   0  0  0  0  0  0  0  0  0  0  0  0
   28.6859   30.6739   36.9063 H   0  0  0  0  0  0  0  0  0  0  0  0
   31.0196   32.2644   35.6680 H   0  0  0  0  0  0  0  0  0  0  0  0
   29.7880   32.8880   36.8222 H   0  0  0  0  0  0  0  0  0  0  0  0
   32.5187   32.6265   38.8452 H   0  0  0  0  0  0  0  0  0  0  0  0
   31.1582   31.8020   39.7210 H   0  0  0  0  0  0  0  0  0  0  0  0
   30.8531   33.2831   38.7510 H   0  0  0  0  0  0  0  0  0  0  0  0
   33.2338   30.4099   39.1104 H   0  0  0  0  0  0  0  0  0  0  0  0
   31.3484   27.2416   35.8025 H   0  0  0  0  0  0  0  0  0  0  0  0
   35.2605   26.1667   37.7874 H   0  0  0  0  0  0  0  0  0  0  0  0
   34.4464   24.5729   37.5990 H   0  0  0  0  0  0  0  0  0  0  0  0
   34.0418   25.5959   39.0232 H   0  0  0  0  0  0  0  0  0  0  0  0
  1  2  1  0
  2  3  2  0
  2  4  1  0
  4  5  2  0
  5  6  1  0
  6  7  2  0
  7  8  1  0
  8  9  2  0
  9 10  1  0
 10 11  2  0
 11 12  1  0
 12 13  2  0
 13 14  1  0
  8 15  1  0
 15 16  1  0
 16 17  1  0
 17 18  1  0
 18 19  1  0
 18 20  1  0
 20 21  2  0
 21 22  1  0
 22 23  1  0
 22 24  2  0
 24 25  1  0
 25 26  2  0
 24 27  1  0
 27 28  1  0
 13  4  1  0
 26 15  1  0
 12  7  1  0
 26 20  1  0
  1 29  1  0
  1 30  1  0
  9 31  1  0
 10 32  1  0
 11 33  1  0
 14 34  1  0
 14 35  1  0
 16 36  1  0
 16 37  1  0
 17 38  1  0
 17 39  1  0
 19 40  1  0
 19 41  1  0
 19 42  1  0
 21 43  1  0
 25 44  1  0
 28 45  1  0
 28 46  1  0
 28 47  1  0
M  END
$$$$
confid_4
     RDKit          3D

 47 50  0  0  0  0  0  0  0  0999 V2000
   24.2000   26.2400   35.6900 N   0  0  0  0  0  0  0  0  0  0  0  0
   24.8500   26.2800   34.4800 C   0  0  0  0  0  0  0  0  0  0  0  0
   24.3100   25.7400   33.5400 O   0  0  0  0  0  0  0  0  0  0  0  0
   26.1800   26.9700   34.4700 C   0  0  0  0  0  0  0  0  0  0  0  0
   26.6500   27.6000   35.5500 N   0  0  0  0  0  0  0  0  0  0  0  0
   27.7900   28.2700   35.6200 N   0  0  0  0  0  0  0  0  0  0  0  0
   28.5400   28.3000   34.5100 C   0  0  0  0  0  0  0  0  0  0  0  0
   29.7700   28.9400   34.5600 C   0  0  0  0  0  0  0  0  0  0  0  0
   30.7000   28.8900   33.5000 C   0  0  0  0  0  0  0  0  0  0  0  0
   30.3700   28.1400   32.3700 C   0  0  0  0  0  0  0  0  0  0  0  0
   29.1200   27.5200   32.2800 C   0  0  0  0  0  0  0  0  0  0  0  0
   28.2100   27.6100   33.3300 C   0  0  0  0  0  0  0  0  0  0  0  0
   26.9700   26.9700   33.3100 C   0  0  0  0  0  0  0  0  0  0  0  0
   26.5300   26.2400   32.2200 N   0  0  0  0  0  0  0  0  0  0  0  0
   30.1444   29.6705   35.7414 N   0  0  0  0  0  0  0  0  0  0  0  0
   30.9557   28.9718   36.7458 C   0  0  0  0  0  0  0  0  0  0  0  0
   31.7889   29.9674   37.5475 C   0  0  0  0  0  0  0  0  0  0  0  0
   30.9169   31.0051   38.1080 N   0  0  0  0  0  0  0  0  0  0  0  0
   31.0132   31.3650   39.5268 C   0  0  0  0  0  0  0  0  0  0  0  0
   29.9456   31.6257   37.2369 C   0  0  0  0  0  0  0  0  0  0  0  0
   29.3712   32.8713   37.5492 C   0  0  0  0  0  0  0  0  0  0  0  0
   28.4562   33.4688   36.6812 C   0  0  0  0  0  0  0  0  0  0  0  0
   27.9193   34.6725   37.0016 F   0  0  0  0  0  0  0  0  0  0  0  0
   28.0983   32.8415   35.4850 C   0  0  0  0  0  0  0  0  0  0  0  0
   28.6648   31.5942   35.1658 C   0  0  0  0  0  0  0  0  0  0  0  0
   29.5765   30.9705   36.0419 C   0  0  0  0  0  0  0  0  0  0  0  0
   27.1789   33.4862   34.6428 O   0  0  0  0  0  0  0  0  0  0  0  0
   26.7090   32.9571   33.4068 C   0  0  0  0  0  0  0  0  0  0  0  0
   24.5988   26.6540   36.5617 H   0  0  0  0  0  0  0  0  0  0  0  0
   23.2680   25.7740   35.7693 H   0  0  0  0  0  0  0  0  0  0  0  0
   31.6567   29.3921   33.5698 H   0  0  0  0  0  0  0  0  0  0  0  0
   31.0711   28.0655   31.5488 H   0  0  0  0  0  0  0  0  0  0  0  0
   28.8854   26.9767   31.3745 H   0  0  0  0  0  0  0  0  0  0  0  0
   27.1525   25.5359   31.7655 H   0  0  0  0  0  0  0  0  0  0  0  0
   25.6757   26.5400   31.6998 H   0  0  0  0  0  0  0  0  0  0  0  0
   31.6399   28.2454   36.2547 H   0  0  0  0  0  0  0  0  0  0  0  0
   30.2846   28.4119   37.4321 H   0  0  0  0  0  0  0  0  0  0  0  0
   32.3430   29.4232   38.3419 H   0  0  0  0  0  0  0  0  0  0  0  0
   32.5337   30.4450   36.8747 H   0  0  0  0  0  0  0  0  0  0  0  0
   31.6971   30.6847   40.0759 H   0  0  0  0  0  0  0  0  0  0  0  0
   31.4070   32.3978   39.6277 H   0  0  0  0  0  0  0  0  0  0  0  0
   30.0109   31.2990   40.0001 H   0  0  0  0  0  0  0  0  0  0  0  0
   29.6364   33.3952   38.4569 H   0  0  0  0  0  0  0  0  0  0  0  0
   28.3937   31.1099   34.2397 H   0  0  0  0  0  0  0  0  0  0  0  0
   25.9913   33.6725   32.9561 H   0  0  0  0  0  0  0  0  0  0  0  0
   27.5574   32.8150   32.7044 H   0  0  0  0  0  0  0  0  0  0  0  0
   26.1880   31.9912   33.5781 H   0  0  0  0  0  0  0  0  0  0  0  0
  1  2  1  0
  2  3  2  0
  2  4  1  0
  4  5  2  0
  5  6  1  0
  6  7  2  0
  7  8  1  0
  8  9  2  0
  9 10  1  0
 10 11  2  0
 11 12  1  0
 12 13  2  0
 13 14  1  0
  8 15  1  0
 15 16  1  0
 16 17  1  0
 17 18  1  0
 18 19  1  0
 18 20  1  0
 20 21  2  0
 21 22  1  0
 22 23  1  0
 22 24  2  0
 24 25  1  0
 25 26  2  0
 24 27  1  0
 27 28  1  0
 13  4  1  0
 26 15  1  0
 12  7  1  0
 26 20  1  0
  1 29  1  0
  1 30  1  0
  9 31  1  0
 10 32  1  0
 11 33  1  0
 14 34  1  0
 14 35  1  0
 16 36  1  0
 16 37  1  0
 17 38  1  0
 17 39  1  0
 19 40  1  0
 19 41  1  0
 19 42  1  0
 21 43  1  0
 25 44  1  0
 28 45  1  0
 28 46  1  0
 28 47  1  0
M  END
$$$$
confid_5
     RDKit          3D

 47 50  0  0  0  0  0  0  0  0999 V2000
   24.2000   26.2400   35.6900 N   0  0  0  0  0  0  0  0  0  0  0  0
   24.8500   26.2800   34.4800 C   0  0  0  0  0  0  0  0  0  0  0  0
   24.3100   25.7400   33.5400 O   0  0  0  0  0  0  0  0  0  0  0  0
   26.1800   26.9700   34.4700 C   0  0  0  0  0  0  0  0  0  0  0  0
   26.6500   27.6000   35.5500 N   0  0  0  0  0  0  0  0  0  0  0  0
   27.7900   28.2700   35.6200 N   0  0  0  0  0  0  0  0  0  0  0  0
   28.5400   28.3000   34.5100 C   0  0  0  0  0  0  0  0  0  0  0  0
   29.7700   28.9400   34.5600 C   0  0  0  0  0  0  0  0  0  0  0  0
   30.7000   28.8900   33.5000 C   0  0  0  0  0  0  0  0  0  0  0  0
   30.3700   28.1400   32.3700 C   0  0  0  0  0  0  0  0  0  0  0  0
   29.1200   27.5200   32.2800 C   0  0  0  0  0  0  0  0  0  0  0  0
   28.2100   27.6100   33.3300 C   0  0  0  0  0  0  0  0  0  0  0  0
   26.9700   26.9700   33.3100 C   0  0  0  0  0  0  0  0  0  0  0  0
   26.5300   26.2400   32.2200 N   0  0  0  0  0  0  0  0  0  0  0  0
   30.1485   29.6566   35.7502 N   0  0  0  0  0  0  0  0  0  0  0  0
   30.2856   31.1144   35.6755 C   0  0  0  0  0  0  0  0  0  0  0  0
   29.8176   31.7468   36.9828 C   0  0  0  0  0  0  0  0  0  0  0  0
   30.5434   31.1551   38.1140 N   0  0  0  0  0  0  0  0  0  0  0  0
   31.0893   32.0209   39.1653 C   0  0  0  0  0  0  0  0  0  0  0  0
   30.7284   29.7197   38.1481 C   0  0  0  0  0  0  0  0  0  0  0  0
   31.1105   29.0559   39.3289 C   0  0  0  0  0  0  0  0  0  0  0  0
   31.2825   27.6709   39.3423 C   0  0  0  0  0  0  0  0  0  0  0  0
   31.6443   27.0537   40.4950 F   0  0  0  0  0  0  0  0  0  0  0  0
   31.0848   26.9189   38.1815 C   0  0  0  0  0  0  0  0  0  0  0  0
   30.7116   27.5730   36.9941 C   0  0  0  0  0  0  0  0  0  0  0  0
   30.5258   28.9698   36.9684 C   0  0  0  0  0  0  0  0  0  0  0  0
   31.2689   25.5290   38.2469 O   0  0  0  0  0  0  0  0  0  0  0  0
   31.0887   24.6393   37.1496 C   0  0  0  0  0  0  0  0  0  0  0  0
   24.5991   26.6534   36.5618 H   0  0  0  0  0  0  0  0  0  0  0  0
   23.2680   25.7739   35.7693 H   0  0  0  0  0  0  0  0  0  0  0  0
   31.6598   29.3859   33.5712 H   0  0  0  0  0  0  0  0  0  0  0  0
   31.0718   28.0639   31.5496 H   0  0  0  0  0  0  0  0  0  0  0  0
   28.8857   26.9761   31.3748 H   0  0  0  0  0  0  0  0  0  0  0  0
   27.1524   25.5356   31.7657 H   0  0  0  0  0  0  0  0  0  0  0  0
   25.6756   26.5399   31.6998 H   0  0  0  0  0  0  0  0  0  0  0  0
   29.6744   31.5216   34.8397 H   0  0  0  0  0  0  0  0  0  0  0  0
   31.3506   31.3748   35.4930 H   0  0  0  0  0  0  0  0  0  0  0  0
   29.9699   32.8462   36.9281 H   0  0  0  0  0  0  0  0  0  0  0  0
   28.7302   31.5551   37.1112 H   0  0  0  0  0  0  0  0  0  0  0  0
   30.5596   31.8313   40.1221 H   0  0  0  0  0  0  0  0  0  0  0  0
   32.1744   31.8210   39.2915 H   0  0  0  0  0  0  0  0  0  0  0  0
   30.9650   33.0957   38.9171 H   0  0  0  0  0  0  0  0  0  0  0  0
   31.2691   29.6004   40.2492 H   0  0  0  0  0  0  0  0  0  0  0  0
   30.5739   26.9982   36.0902 H   0  0  0  0  0  0  0  0  0  0  0  0
   30.0430   24.6956   36.7798 H   0  0  0  0  0  0  0  0  0  0  0  0
   31.2909   23.6022   37.4869 H   0  0  0  0  0  0  0  0  0  0  0  0
   31.7976   24.8918   36.3328 H   0  0  0  0  0  0  0  0  0  0  0  0
  1  2  1  0
  2  3  2  0
  2  4  1  0
  4  5  2  0
  5  6  1  0
  6  7  2  0
  7  8  1  0
  8  9  2  0
  9 10  1  0
 10 11  2  0
 11 12  1  0
 12 13  2  0
 13 14  1  0
  8 15  1  0
 15 16  1  0
 16 17  1  0
 17 18  1  0
 18 19  1  0
 18 20  1  0
 20 21  2  0
 21 22  1  0
 22 23  1  0
 22 24  2  0
 24 25  1  0
 25 26  2  0
 24 27  1  0
 27 28  1  0
 13  4  1  0
 26 15  1  0
 12  7  1  0
 26 20  1  0
  1 29  1  0
  1 30  1  0
  9 31  1  0
 10 32  1  0
 11 33  1  0
 14 34  1  0
 14 35  1  0
 16 36  1  0
 16 37  1  0
 17 38  1  0
 17 39  1  0
 19 40  1  0
 19 41  1  0
 19 42  1  0
 21 43  1  0
 25 44  1  0
 28 45  1  0
 28 46  1  0
 28 47  1  0
M  END
$$$$
confid_6
     RDKit          3D

 47 50  0  0  0  0  0  0  0  0999 V2000
   24.2000   26.2400   35.6900 N   0  0  0  0  0  0  0  0  0  0  0  0
   24.8500   26.2800   34.4800 C   0  0  0  0  0  0  0  0  0  0  0  0
   24.3100   25.7400   33.5400 O   0  0  0  0  0  0  0  0  0  0  0  0
   26.1800   26.9700   34.4700 C   0  0  0  0  0  0  0  0  0  0  0  0
   26.6500   27.6000   35.5500 N   0  0  0  0  0  0  0  0  0  0  0  0
   27.7900   28.2700   35.6200 N   0  0  0  0  0  0  0  0  0  0  0  0
   28.5400   28.3000   34.5100 C   0  0  0  0  0  0  0  0  0  0  0  0
   29.7700   28.9400   34.5600 C   0  0  0  0  0  0  0  0  0  0  0  0
   30.7000   28.8900   33.5000 C   0  0  0  0  0  0  0  0  0  0  0  0
   30.3700   28.1400   32.3700 C   0  0  0  0  0  0  0  0  0  0  0  0
   29.1200   27.5200   32.2800 C   0  0  0  0  0  0  0  0  0  0  0  0
   28.2100   27.6100   33.3300 C   0  0  0  0  0  0  0  0  0  0  0  0
   26.9700   26.9700   33.3100 C   0  0  0  0  0  0  0  0  0  0  0  0
   26.5300   26.2400   32.2200 N   0  0  0  0  0  0  0  0  0  0  0  0
   30.1473   29.6634   35.7450 N   0  0  0  0  0  0  0  0  0  0  0  0
   29.5026   30.9520   36.0192 C   0  0  0  0  0  0  0  0  0  0  0  0
   30.5115   31.9179   36.6339 C   0  0  0  0  0  0  0  0  0  0  0  0
   31.1278   31.3100   37.8203 N   0  0  0  0  0  0  0  0  0  0  0  0
   31.2634   32.0895   39.0558 C   0  0  0  0  0  0  0  0  0  0  0  0
   31.5604   29.9306   37.7484 C   0  0  0  0  0  0  0  0  0  0  0  0
   32.4437   29.3866   38.6982 C   0  0  0  0  0  0  0  0  0  0  0  0
   32.8511   28.0530   38.6171 C   0  0  0  0  0  0  0  0  0  0  0  0
   33.7053   27.5872   39.5612 F   0  0  0  0  0  0  0  0  0  0  0  0
   32.3745   27.2295   37.5764 C   0  0  0  0  0  0  0  0  0  0  0  0
   31.4951   27.7685   36.6322 C   0  0  0  0  0  0  0  0  0  0  0  0
   31.0802   29.1120   36.7046 C   0  0  0  0  0  0  0  0  0  0  0  0
   32.7306   25.8780   37.4306 O   0  0  0  0  0  0  0  0  0  0  0  0
   33.6195   25.1585   38.2776 C   0  0  0  0  0  0  0  0  0  0  0  0
   24.5994   26.6527   36.5619 H   0  0  0  0  0  0  0  0  0  0  0  0
   23.2674   25.7751   35.7691 H   0  0  0  0  0  0  0  0  0  0  0  0
   31.6584   29.3889   33.5714 H   0  0  0  0  0  0  0  0  0  0  0  0
   31.0739   28.0596   31.5517 H   0  0  0  0  0  0  0  0  0  0  0  0
   28.8954   26.9543   31.3856 H   0  0  0  0  0  0  0  0  0  0  0  0
   26.6265   26.6230   31.2536 H   0  0  0  0  0  0  0  0  0  0  0  0
   26.3241   25.2204   32.3142 H   0  0  0  0  0  0  0  0  0  0  0  0
   28.6572   30.7981   36.7239 H   0  0  0  0  0  0  0  0  0  0  0  0
   29.1030   31.3962   35.0808 H   0  0  0  0  0  0  0  0  0  0  0  0
   29.9963   32.8708   36.8819 H   0  0  0  0  0  0  0  0  0  0  0  0
   31.3053   32.1392   35.8878 H   0  0  0  0  0  0  0  0  0  0  0  0
   30.7994   31.5384   39.9007 H   0  0  0  0  0  0  0  0  0  0  0  0
   32.3373   32.2706   39.2704 H   0  0  0  0  0  0  0  0  0  0  0  0
   30.7627   33.0770   38.9745 H   0  0  0  0  0  0  0  0  0  0  0  0
   32.8319   29.9912   39.5059 H   0  0  0  0  0  0  0  0  0  0  0  0
   31.1271   27.1217   35.8470 H   0  0  0  0  0  0  0  0  0  0  0  0
   33.2188   25.1241   39.3125 H   0  0  0  0  0  0  0  0  0  0  0  0
   34.6270   25.6245   38.2617 H   0  0  0  0  0  0  0  0  0  0  0  0
   33.7098   24.1182   37.9033 H   0  0  0  0  0  0  0  0  0  0  0  0
  1  2  1  0
  2  3  2  0
  2  4  1  0
  4  5  2  0
  5  6  1  0
  6  7  2  0
  7  8  1  0
  8  9  2  0
  9 10  1  0
 10 11  2  0
 11 12  1  0
 12 13  2  0
 13 14  1  0
  8 15  1  0
 15 16  1  0
 16 17  1  0
 17 18  1  0
 18 19  1  0
 18 20  1  0
 20 21  2  0
 21 22  1  0
 22 23  1  0
 22 24  2  0
 24 25  1  0
 25 26  2  0
 24 27  1  0
 27 28  1  0
 13  4  1  0
 26 15  1  0
 12  7  1  0
 26 20  1  0
  1 29  1  0
  1 30  1  0
  9 31  1  0
 10 32  1  0
 11 33  1  0
 14 34  1  0
 14 35  1  0
 16 36  1  0
 16 37  1  0
 17 38  1  0
 17 39  1  0
 19 40  1  0
 19 41  1  0
 19 42  1  0
 21 43  1  0
 25 44  1  0
 28 45  1  0
 28 46  1  0
 28 47  1  0
M  END
$$$$
confid_7
     RDKit          3D

 47 50  0  0  0  0  0  0  0  0999 V2000
   24.2000   26.2400   35.6900 N   0  0  0  0  0  0  0  0  0  0  0  0
   24.8500   26.2800   34.4800 C   0  0  0  0  0  0  0  0  0  0  0  0
   24.3100   25.7400   33.5400 O   0  0  0  0  0  0  0  0  0  0  0  0
   26.1800   26.9700   34.4700 C   0  0  0  0  0  0  0  0  0  0  0  0
   26.6500   27.6000   35.5500 N   0  0  0  0  0  0  0  0  0  0  0  0
   27.7900   28.2700   35.6200 N   0  0  0  0  0  0  0  0  0  0  0  0
   28.5400   28.3000   34.5100 C   0  0  0  0  0  0  0  0  0  0  0  0
   29.7700   28.9400   34.5600 C   0  0  0  0  0  0  0  0  0  0  0  0
   30.7000   28.8900   33.5000 C   0  0  0  0  0  0  0  0  0  0  0  0
   30.3700   28.1400   32.3700 C   0  0  0  0  0  0  0  0  0  0  0  0
   29.1200   27.5200   32.2800 C   0  0  0  0  0  0  0  0  0  0  0  0
   28.2100   27.6100   33.3300 C   0  0  0  0  0  0  0  0  0  0  0  0
   26.9700   26.9700   33.3100 C   0  0  0  0  0  0  0  0  0  0  0  0
   26.5300   26.2400   32.2200 N   0  0  0  0  0  0  0  0  0  0  0  0
   30.1427   29.6735   35.7394 N   0  0  0  0  0  0  0  0  0  0  0  0
   30.6845   28.9280   36.8814 C   0  0  0  0  0  0  0  0  0  0  0  0
   31.7045   29.7812   37.6297 C   0  0  0  0  0  0  0  0  0  0  0  0
   31.1007   31.0667   38.0018 N   0  0  0  0  0  0  0  0  0  0  0  0
   31.2595   31.5864   39.3646 C   0  0  0  0  0  0  0  0  0  0  0  0
   30.3326   31.7824   37.0066 C   0  0  0  0  0  0  0  0  0  0  0  0
   30.0422   33.1522   37.1478 C   0  0  0  0  0  0  0  0  0  0  0  0
   29.3144   33.8290   36.1679 C   0  0  0  0  0  0  0  0  0  0  0  0
   29.0533   35.1516   36.3233 F   0  0  0  0  0  0  0  0  0  0  0  0
   28.8605   33.1578   35.0294 C   0  0  0  0  0  0  0  0  0  0  0  0
   29.1399   31.7871   34.8819 C   0  0  0  0  0  0  0  0  0  0  0  0
   29.8689   31.0901   35.8665 C   0  0  0  0  0  0  0  0  0  0  0  0
   28.1365   33.8842   34.0710 O   0  0  0  0  0  0  0  0  0  0  0  0
   27.6256   33.3358   32.8602 C   0  0  0  0  0  0  0  0  0  0  0  0
   23.2656   25.7786   35.7681 H   0  0  0  0  0  0  0  0  0  0  0  0
   24.6000   26.6513   36.5623 H   0  0  0  0  0  0  0  0  0  0  0  0
   31.6565   29.3925   33.5700 H   0  0  0  0  0  0  0  0  0  0  0  0
   31.0710   28.0657   31.5487 H   0  0  0  0  0  0  0  0  0  0  0  0
   28.8854   26.9767   31.3745 H   0  0  0  0  0  0  0  0  0  0  0  0
   27.1523   25.5355   31.7658 H   0  0  0  0  0  0  0  0  0  0  0  0
   25.6757   26.5399   31.6998 H   0  0  0  0  0  0  0  0  0  0  0  0
   29.8545   28.6543   37.5686 H   0  0  0  0  0  0  0  0  0  0  0  0
   31.1793   27.9927   36.5368 H   0  0  0  0  0  0  0  0  0  0  0  0
   32.5778   29.9700   36.9680 H   0  0  0  0  0  0  0  0  0  0  0  0
   32.0623   29.2221   38.5209 H   0  0  0  0  0  0  0  0  0  0  0  0
   31.8892   32.5005   39.3479 H   0  0  0  0  0  0  0  0  0  0  0  0
   31.7519   30.8466   40.0300 H   0  0  0  0  0  0  0  0  0  0  0  0
   30.2637   31.8253   39.7947 H   0  0  0  0  0  0  0  0  0  0  0  0
   30.3856   33.7094   38.0083 H   0  0  0  0  0  0  0  0  0  0  0  0
   28.7843   31.2627   34.0073 H   0  0  0  0  0  0  0  0  0  0  0  0
   28.4581   32.9471   32.2363 H   0  0  0  0  0  0  0  0  0  0  0  0
   26.9028   32.5228   33.0836 H   0  0  0  0  0  0  0  0  0  0  0  0
   27.1001   34.1324   32.2949 H   0  0  0  0  0  0  0  0  0  0  0  0
  1  2  1  0
  2  3  2  0
  2  4  1  0
  4  5  2  0
  5  6  1  0
  6  7  2  0
  7  8  1  0
  8  9  2  0
  9 10  1  0
 10 11  2  0
 11 12  1  0
 12 13  2  0
 13 14  1  0
  8 15  1  0
 15 16  1  0
 16 17  1  0
 17 18  1  0
 18 19  1  0
 18 20  1  0
 20 21  2  0
 21 22  1  0
 22 23  1  0
 22 24  2  0
 24 25  1  0
 25 26  2  0
 24 27  1  0
 27 28  1  0
 13  4  1  0
 26 15  1  0
 12  7  1  0
 26 20  1  0
  1 29  1  0
  1 30  1  0
  9 31  1  0
 10 32  1  0
 11 33  1  0
 14 34  1  0
 14 35  1  0
 16 36  1  0
 16 37  1  0
 17 38  1  0
 17 39  1  0
 19 40  1  0
 19 41  1  0
 19 42  1  0
 21 43  1  0
 25 44  1  0
 28 45  1  0
 28 46  1  0
 28 47  1  0
M  END
$$$$
