confid_0
     RDKit          3D

 39 42  0  0  0  0  0  0  0  0999 V2000
   24.4800   26.1000   36.1300 N   0  0  0  0  0  0  0  0  0  0  0  0
   25.2500   26.2500   34.9900 C   0  0  0  0  0  0  0  0  0  0  0  0
   24.7400   25.7600   33.9900 O   0  0  0  0  0  0  0  0  0  0  0  0
   26.5900   26.8900   34.9600 C   0  0  0  0  0  0  0  0  0  0  0  0
   27.0600   27.2400   36.1600 N   0  0  0  0  0  0  0  0  0  0  0  0
   28.3000   27.7100   36.2400 N   0  0  0  0  0  0  0  0  0  0  0  0
   29.0500   27.9600   35.1500 C   0  0  0  0  0  0  0  0  0  0  0  0
   30.3400   28.4900   35.2600 C   0  0  0  0  0  0  0  0  0  0  0  0
   31.1100   28.8200   34.1400 C   0  0  0  0  0  0  0  0  0  0  0  0
   30.5200   28.6700   32.8800 C   0  0  0  0  0  0  0  0  0  0  0  0
   29.2900   28.0200   32.7700 C   0  0  0  0  0  0  0  0  0  0  0  0
   28.5200   27.7100   33.8900 C   0  0  0  0  0  0  0  0  0  0  0  0
   27.2700   27.0800   33.7600 C   0  0  0  0  0  0  0  0  0  0  0  0
   26.7500   26.8800   32.4900 N   0  0  0  0  0  0  0  0  0  0  0  0
   23.0419   25.9822   36.1353 C   0  0  0  0  0  0  0  0  0  0  0  0
   22.3199   26.3797   35.0387 N   0  0  0  0  0  0  0  0  0  0  0  0
   20.9592   26.3173   34.9898 C   0  0  0  0  0  0  0  0  0  0  0  0
   20.2718   25.8377   36.0981 C   0  0  0  0  0  0  0  0  0  0  0  0
   18.7892   25.6775   36.2757 C   0  0  0  0  0  0  0  0  0  0  0  0
   18.6773   25.1327   37.6304 N   0  0  0  0  0  0  0  0  0  0  0  0
   19.9822   24.9933   38.1811 C   0  0  0  0  0  0  0  0  0  0  0  0
   20.2194   24.5495   39.3359 O   0  0  0  0  0  0  0  0  0  0  0  0
   20.9657   25.4361   37.2168 C   0  0  0  0  0  0  0  0  0  0  0  0
   22.3608   25.4946   37.2780 C   0  0  0  0  0  0  0  0  0  0  0  0
   23.2182   24.9511   38.7174 Cl  0  0  0  0  0  0  0  0  0  0  0  0
   17.4323   24.7896   38.3046 C   0  0  0  0  0  0  0  0  0  0  0  0
   24.9723   26.1298   37.0498 H   0  0  0  0  0  0  0  0  0  0  0  0
   30.7580   28.6629   36.2441 H   0  0  0  0  0  0  0  0  0  0  0  0
   32.0983   29.2479   34.2470 H   0  0  0  0  0  0  0  0  0  0  0  0
   31.0669   28.9543   31.9901 H   0  0  0  0  0  0  0  0  0  0  0  0
   28.9258   27.8587   31.7656 H   0  0  0  0  0  0  0  0  0  0  0  0
   25.7672   27.1502   32.2659 H   0  0  0  0  0  0  0  0  0  0  0  0
   27.2969   26.3788   31.7553 H   0  0  0  0  0  0  0  0  0  0  0  0
   20.4289   26.6387   34.1035 H   0  0  0  0  0  0  0  0  0  0  0  0
   18.3807   24.9587   35.5341 H   0  0  0  0  0  0  0  0  0  0  0  0
   18.2778   26.6613   36.2103 H   0  0  0  0  0  0  0  0  0  0  0  0
   17.4341   23.7105   38.5644 H   0  0  0  0  0  0  0  0  0  0  0  0
   16.5660   25.0001   37.6425 H   0  0  0  0  0  0  0  0  0  0  0  0
   17.3323   25.3916   39.2319 H   0  0  0  0  0  0  0  0  0  0  0  0
  1  2  1  0
  2  3  2  0
  2  4  1  0
  4  5  2  0
  5  6  1  0
  6  7  2  0
  7  8  1  0
  8  9  2  0
  9 10  1  0
 10 11  2  0
 11 12  1  0
 12 13  2  0
 13 14  1  0
  1 15  1  0
 15 16  2  0
 16 17  1  0
 17 18  2  0
 18 19  1  0
 19 20  1  0
 20 21  1  0
 21 22  2  0
 21 23  1  0
 23 24  2  0
 24 25  1  0
 20 26  1  0
 13  4  1  0
 24 15  1  0
 12  7  1  0
 23 18  1  0
  1 27  1  0
  8 28  1  0
  9 29  1  0
 10 30  1  0
 11 31  1  0
 14 32  1  0
 14 33  1  0
 17 34  1  0
 19 35  1  0
 19 36  1  0
 26 37  1  0
 26 38  1  0
 26 39  1  0
M  END
$$$$
confid_1
     RDKit          3D

 39 42  0  0  0  0  0  0  0  0999 V2000
   24.4800   26.1000   36.1300 N   0  0  0  0  0  0  0  0  0  0  0  0
   25.2500   26.2500   34.9900 C   0  0  0  0  0  0  0  0  0  0  0  0
   24.7400   25.7600   33.9900 O   0  0  0  0  0  0  0  0  0  0  0  0
   26.5900   26.8900   34.9600 C   0  0  0  0  0  0  0  0  0  0  0  0
   27.0600   27.2400   36.1600 N   0  0  0  0  0  0  0  0  0  0  0  0
   28.3000   27.7100   36.2400 N   0  0  0  0  0  0  0  0  0  0  0  0
   29.0500   27.9600   35.1500 C   0  0  0  0  0  0  0  0  0  0  0  0
   30.3400   28.4900   35.2600 C   0  0  0  0  0  0  0  0  0  0  0  0
   31.1100   28.8200   34.1400 C   0  0  0  0  0  0  0  0  0  0  0  0
   30.5200   28.6700   32.8800 C   0  0  0  0  0  0  0  0  0  0  0  0
   29.2900   28.0200   32.7700 C   0  0  0  0  0  0  0  0  0  0  0  0
   28.5200   27.7100   33.8900 C   0  0  0  0  0  0  0  0  0  0  0  0
   27.2700   27.0800   33.7600 C   0  0  0  0  0  0  0  0  0  0  0  0
   26.7500   26.8800   32.4900 N   0  0  0  0  0  0  0  0  0  0  0  0
   23.5021   25.0582   36.3323 C   0  0  0  0  0  0  0  0  0  0  0  0
   23.5444   23.9224   35.5643 N   0  0  0  0  0  0  0  0  0  0  0  0
   22.6664   22.8920   35.7231 C   0  0  0  0  0  0  0  0  0  0  0  0
   21.6909   22.9908   36.7079 C   0  0  0  0  0  0  0  0  0  0  0  0
   20.6253   21.9947   37.0651 C   0  0  0  0  0  0  0  0  0  0  0  0
   19.9138   22.6537   38.1623 N   0  0  0  0  0  0  0  0  0  0  0  0
   20.5194   23.9172   38.4123 C   0  0  0  0  0  0  0  0  0  0  0  0
   20.1336   24.7238   39.2995 O   0  0  0  0  0  0  0  0  0  0  0  0
   21.6249   24.1143   37.5000 C   0  0  0  0  0  0  0  0  0  0  0  0
   22.5192   25.1772   37.3457 C   0  0  0  0  0  0  0  0  0  0  0  0
   22.3919   26.6103   38.3620 Cl  0  0  0  0  0  0  0  0  0  0  0  0
   18.7718   22.1047   38.8813 C   0  0  0  0  0  0  0  0  0  0  0  0
   24.6582   26.7655   36.9143 H   0  0  0  0  0  0  0  0  0  0  0  0
   30.7580   28.6629   36.2441 H   0  0  0  0  0  0  0  0  0  0  0  0
   32.0983   29.2479   34.2470 H   0  0  0  0  0  0  0  0  0  0  0  0
   31.0669   28.9543   31.9901 H   0  0  0  0  0  0  0  0  0  0  0  0
   28.9258   27.8587   31.7656 H   0  0  0  0  0  0  0  0  0  0  0  0
   25.7673   27.1503   32.2658 H   0  0  0  0  0  0  0  0  0  0  0  0
   27.2969   26.3787   31.7554 H   0  0  0  0  0  0  0  0  0  0  0  0
   22.7333   22.0150   35.0935 H   0  0  0  0  0  0  0  0  0  0  0  0
   19.9418   21.8264   36.2059 H   0  0  0  0  0  0  0  0  0  0  0  0
   21.0791   21.0429   37.4140 H   0  0  0  0  0  0  0  0  0  0  0  0
   19.0215   22.0064   39.9583 H   0  0  0  0  0  0  0  0  0  0  0  0
   18.5093   21.1036   38.4787 H   0  0  0  0  0  0  0  0  0  0  0  0
   17.8987   22.7803   38.7657 H   0  0  0  0  0  0  0  0  0  0  0  0
  1  2  1  0
  2  3  2  0
  2  4  1  0
  4  5  2  0
  5  6  1  0
  6  7  2  0
  7  8  1  0
  8  9  2  0
  9 10  1  0
 10 11  2  0
 11 12  1  0
 12 13  2  0
 13 14  1  0
  1 15  1  0
 15 16  2  0
 16 17  1  0
 17 18  2  0
 18 19  1  0
 19 20  1  0
 20 21  1  0
 21 22  2  0
 21 23  1  0
 23 24  2  0
 24 25  1  0
 20 26  1  0
 13  4  1  0
 24 15  1  0
 12  7  1  0
 23 18  1  0
  1 27  1  0
  8 28  1  0
  9 29  1  0
 10 30  1  0
 11 31  1  0
 14 32  1  0
 14 33  1  0
 17 34  1  0
 19 35  1  0
 19 36  1  0
 26 37  1  0
 26 38  1  0
 26 39  1  0
M  END
$$$$
