confid_0
     RDKit          3D

 45 48  0  0  0  0  0  0  0  0999 V2000
   24.6900   26.1200   35.5300 N   0  0  0  0  0  0  0  0  0  0  0  0
   25.6600   25.6700   34.6600 C   0  0  0  0  0  0  0  0  0  0  0  0
   25.2400   25.0100   33.7200 O   0  0  0  0  0  0  0  0  0  0  0  0
   27.0300   26.2200   34.8800 C   0  0  0  0  0  0  0  0  0  0  0  0
   27.3500   26.7300   36.0700 N   0  0  0  0  0  0  0  0  0  0  0  0
   28.5700   27.1800   36.3300 N   0  0  0  0  0  0  0  0  0  0  0  0
   29.5300   27.1100   35.3900 C   0  0  0  0  0  0  0  0  0  0  0  0
   30.8300   27.5700   35.6500 C   0  0  0  0  0  0  0  0  0  0  0  0
   31.8500   27.5400   34.6900 C   0  0  0  0  0  0  0  0  0  0  0  0
   31.5100   27.1200   33.4000 C   0  0  0  0  0  0  0  0  0  0  0  0
   30.2200   26.6300   33.1100 C   0  0  0  0  0  0  0  0  0  0  0  0
   29.2400   26.6600   34.1000 C   0  0  0  0  0  0  0  0  0  0  0  0
   27.9300   26.2600   33.8100 C   0  0  0  0  0  0  0  0  0  0  0  0
   27.5200   25.7100   32.6100 N   0  0  0  0  0  0  0  0  0  0  0  0
   23.3540   26.4911   35.1453 C   0  0  0  0  0  0  0  0  0  0  0  0
   22.3567   26.4420   36.0844 N   0  0  0  0  0  0  0  0  0  0  0  0
   21.0716   26.8035   35.8050 C   0  0  0  0  0  0  0  0  0  0  0  0
   20.7758   27.2440   34.5209 C   0  0  0  0  0  0  0  0  0  0  0  0
   19.5428   27.7001   33.9345 C   0  0  0  0  0  0  0  0  0  0  0  0
   18.4343   27.7977   34.5247 O   0  0  0  0  0  0  0  0  0  0  0  0
   19.7692   28.0533   32.5725 N   0  0  0  0  0  0  0  0  0  0  0  0
   18.7832   28.6237   31.6562 C   0  0  0  0  0  0  0  0  0  0  0  0
   17.7216   27.5878   31.2681 C   0  0  0  0  0  0  0  0  0  0  0  0
   18.3220   26.4056   30.5096 C   0  0  0  0  0  0  0  0  0  0  0  0
   21.1907   27.8572   32.2660 C   0  0  0  0  0  0  0  0  0  0  0  0
   21.7497   27.3252   33.5555 C   0  0  0  0  0  0  0  0  0  0  0  0
   23.0632   26.9603   33.8422 C   0  0  0  0  0  0  0  0  0  0  0  0
   24.9112   26.1422   36.5514 H   0  0  0  0  0  0  0  0  0  0  0  0
   31.0672   27.9417   36.6393 H   0  0  0  0  0  0  0  0  0  0  0  0
   32.8482   27.8886   34.9211 H   0  0  0  0  0  0  0  0  0  0  0  0
   32.2640   27.1263   32.6235 H   0  0  0  0  0  0  0  0  0  0  0  0
   30.0101   26.3034   32.1004 H   0  0  0  0  0  0  0  0  0  0  0  0
   28.1318   25.0441   32.0887 H   0  0  0  0  0  0  0  0  0  0  0  0
   26.6929   26.1017   32.1064 H   0  0  0  0  0  0  0  0  0  0  0  0
   20.3076   26.7507   36.5691 H   0  0  0  0  0  0  0  0  0  0  0  0
   19.2900   28.9959   30.7390 H   0  0  0  0  0  0  0  0  0  0  0  0
   18.2907   29.4919   32.1441 H   0  0  0  0  0  0  0  0  0  0  0  0
   16.9643   28.0796   30.6203 H   0  0  0  0  0  0  0  0  0  0  0  0
   17.2011   27.2170   32.1768 H   0  0  0  0  0  0  0  0  0  0  0  0
   17.5098   25.7184   30.1919 H   0  0  0  0  0  0  0  0  0  0  0  0
   19.0233   25.8420   31.1605 H   0  0  0  0  0  0  0  0  0  0  0  0
   18.8618   26.7594   29.6055 H   0  0  0  0  0  0  0  0  0  0  0  0
   21.6676   28.8261   32.0061 H   0  0  0  0  0  0  0  0  0  0  0  0
   21.3131   27.1161   31.4481 H   0  0  0  0  0  0  0  0  0  0  0  0
   23.8302   27.0594   33.0854 H   0  0  0  0  0  0  0  0  0  0  0  0
  1  2  1  0
  2  3  2  0
  2  4  1  0
  4  5  2  0
  5  6  1  0
  6  7  2  0
  7  8  1  0
  8  9  2  0
  9 10  1  0
 10 11  2  0
 11 12  1  0
 12 13  2  0
 13 14  1  0
  1 15  1  0
 15 16  2  0
 16 17  1  0
 17 18  2  0
 18 19  1  0
 19 20  2  0
 19 21  1  0
 21 22  1  0
 22 23  1  0
 23 24  1  0
 21 25  1  0
 25 26  1  0
 26 27  2  0
 13  4  1  0
 27 15  1  0
 12  7  1  0
 26 18  1  0
  1 28  1  0
  8 29  1  0
  9 30  1  0
 10 31  1  0
 11 32  1  0
 14 33  1  0
 14 34  1  0
 17 35  1  0
 22 36  1  0
 22 37  1  0
 23 38  1  0
 23 39  1  0
 24 40  1  0
 24 41  1  0
 24 42  1  0
 25 43  1  0
 25 44  1  0
 27 45  1  0
M  END
$$$$
confid_1
     RDKit          3D

 45 48  0  0  0  0  0  0  0  0999 V2000
   24.6900   26.1200   35.5300 N   0  0  0  0  0  0  0  0  0  0  0  0
   25.6600   25.6700   34.6600 C   0  0  0  0  0  0  0  0  0  0  0  0
   25.2400   25.0100   33.7200 O   0  0  0  0  0  0  0  0  0  0  0  0
   27.0300   26.2200   34.8800 C   0  0  0  0  0  0  0  0  0  0  0  0
   27.3500   26.7300   36.0700 N   0  0  0  0  0  0  0  0  0  0  0  0
   28.5700   27.1800   36.3300 N   0  0  0  0  0  0  0  0  0  0  0  0
   29.5300   27.1100   35.3900 C   0  0  0  0  0  0  0  0  0  0  0  0
   30.8300   27.5700   35.6500 C   0  0  0  0  0  0  0  0  0  0  0  0
   31.8500   27.5400   34.6900 C   0  0  0  0  0  0  0  0  0  0  0  0
   31.5100   27.1200   33.4000 C   0  0  0  0  0  0  0  0  0  0  0  0
   30.2200   26.6300   33.1100 C   0  0  0  0  0  0  0  0  0  0  0  0
   29.2400   26.6600   34.1000 C   0  0  0  0  0  0  0  0  0  0  0  0
   27.9300   26.2600   33.8100 C   0  0  0  0  0  0  0  0  0  0  0  0
   27.5200   25.7100   32.6100 N   0  0  0  0  0  0  0  0  0  0  0  0
   23.3455   26.4672   35.1517 C   0  0  0  0  0  0  0  0  0  0  0  0
   22.3567   26.4136   36.0994 N   0  0  0  0  0  0  0  0  0  0  0  0
   21.0640   26.7522   35.8268 C   0  0  0  0  0  0  0  0  0  0  0  0
   20.7507   27.1723   34.5401 C   0  0  0  0  0  0  0  0  0  0  0  0
   19.5053   27.5998   33.9580 C   0  0  0  0  0  0  0  0  0  0  0  0
   18.3996   27.6847   34.5554 O   0  0  0  0  0  0  0  0  0  0  0  0
   19.7147   27.9400   32.5898 N   0  0  0  0  0  0  0  0  0  0  0  0
   18.7120   28.4815   31.6763 C   0  0  0  0  0  0  0  0  0  0  0  0
   17.7116   27.3929   31.2805 C   0  0  0  0  0  0  0  0  0  0  0  0
   16.6777   27.9260   30.2936 C   0  0  0  0  0  0  0  0  0  0  0  0
   21.1355   27.7588   32.2725 C   0  0  0  0  0  0  0  0  0  0  0  0
   21.7150   27.2570   33.5654 C   0  0  0  0  0  0  0  0  0  0  0  0
   23.0365   26.9167   33.8455 C   0  0  0  0  0  0  0  0  0  0  0  0
   24.9177   26.1623   36.5495 H   0  0  0  0  0  0  0  0  0  0  0  0
   31.0672   27.9417   36.6393 H   0  0  0  0  0  0  0  0  0  0  0  0
   32.8483   27.8885   34.9211 H   0  0  0  0  0  0  0  0  0  0  0  0
   32.2640   27.1263   32.6235 H   0  0  0  0  0  0  0  0  0  0  0  0
   30.0101   26.3034   32.1003 H   0  0  0  0  0  0  0  0  0  0  0  0
   28.1319   25.0444   32.0885 H   0  0  0  0  0  0  0  0  0  0  0  0
   26.6927   26.1016   32.1065 H   0  0  0  0  0  0  0  0  0  0  0  0
   20.3069   26.6945   36.5970 H   0  0  0  0  0  0  0  0  0  0  0  0
   19.2144   28.8695   30.7632 H   0  0  0  0  0  0  0  0  0  0  0  0
   18.1853   29.3279   32.1679 H   0  0  0  0  0  0  0  0  0  0  0  0
   17.1858   27.0188   32.1854 H   0  0  0  0  0  0  0  0  0  0  0  0
   18.2547   26.5427   30.8136 H   0  0  0  0  0  0  0  0  0  0  0  0
   16.1157   28.7718   30.7436 H   0  0  0  0  0  0  0  0  0  0  0  0
   17.1751   28.2706   29.3619 H   0  0  0  0  0  0  0  0  0  0  0  0
   15.9594   27.1197   30.0353 H   0  0  0  0  0  0  0  0  0  0  0  0
   21.5959   28.7295   31.9902 H   0  0  0  0  0  0  0  0  0  0  0  0
   21.2585   27.0044   31.4668 H   0  0  0  0  0  0  0  0  0  0  0  0
   23.7952   27.0189   33.0808 H   0  0  0  0  0  0  0  0  0  0  0  0
  1  2  1  0
  2  3  2  0
  2  4  1  0
  4  5  2  0
  5  6  1  0
  6  7  2  0
  7  8  1  0
  8  9  2  0
  9 10  1  0
 10 11  2  0
 11 12  1  0
 12 13  2  0
 13 14  1  0
  1 15  1  0
 15 16  2  0
 16 17  1  0
 17 18  2  0
 18 19  1  0
 19 20  2  0
 19 21  1  0
 21 22  1  0
 22 23  1  0
 23 24  1  0
 21 25  1  0
 25 26  1  0
 26 27  2  0
 13  4  1  0
 27 15  1  0
 12  7  1  0
 26 18  1  0
  1 28  1  0
  8 29  1  0
  9 30  1  0
 10 31  1  0
 11 32  1  0
 14 33  1  0
 14 34  1  0
 17 35  1  0
 22 36  1  0
 22 37  1  0
 23 38  1  0
 23 39  1  0
 24 40  1  0
 24 41  1  0
 24 42  1  0
 25 43  1  0
 25 44  1  0
 27 45  1  0
M  END
$$$$
confid_2
     RDKit          3D

 45 48  0  0  0  0  0  0  0  0999 V2000
   24.6900   26.1200   35.5300 N   0  0  0  0  0  0  0  0  0  0  0  0
   25.6600   25.6700   34.6600 C   0  0  0  0  0  0  0  0  0  0  0  0
   25.2400   25.0100   33.7200 O   0  0  0  0  0  0  0  0  0  0  0  0
   27.0300   26.2200   34.8800 C   0  0  0  0  0  0  0  0  0  0  0  0
   27.3500   26.7300   36.0700 N   0  0  0  0  0  0  0  0  0  0  0  0
   28.5700   27.1800   36.3300 N   0  0  0  0  0  0  0  0  0  0  0  0
   29.5300   27.1100   35.3900 C   0  0  0  0  0  0  0  0  0  0  0  0
   30.8300   27.5700   35.6500 C   0  0  0  0  0  0  0  0  0  0  0  0
   31.8500   27.5400   34.6900 C   0  0  0  0  0  0  0  0  0  0  0  0
   31.5100   27.1200   33.4000 C   0  0  0  0  0  0  0  0  0  0  0  0
   30.2200   26.6300   33.1100 C   0  0  0  0  0  0  0  0  0  0  0  0
   29.2400   26.6600   34.1000 C   0  0  0  0  0  0  0  0  0  0  0  0
   27.9300   26.2600   33.8100 C   0  0  0  0  0  0  0  0  0  0  0  0
   27.5200   25.7100   32.6100 N   0  0  0  0  0  0  0  0  0  0  0  0
   23.5100   25.3795   35.8908 C   0  0  0  0  0  0  0  0  0  0  0  0
   22.4189   26.0620   36.3624 N   0  0  0  0  0  0  0  0  0  0  0  0
   21.2727   25.4313   36.7477 C   0  0  0  0  0  0  0  0  0  0  0  0
   21.2230   24.0455   36.6616 C   0  0  0  0  0  0  0  0  0  0  0  0
   20.1811   23.1107   36.9977 C   0  0  0  0  0  0  0  0  0  0  0  0
   19.0520   23.4011   37.4745 O   0  0  0  0  0  0  0  0  0  0  0  0
   20.6307   21.7852   36.7295 N   0  0  0  0  0  0  0  0  0  0  0  0
   19.8896   20.5543   36.9992 C   0  0  0  0  0  0  0  0  0  0  0  0
   18.6982   20.4036   36.0458 C   0  0  0  0  0  0  0  0  0  0  0  0
   19.1398   20.2814   34.5886 C   0  0  0  0  0  0  0  0  0  0  0  0
   22.0121   21.8477   36.2385 C   0  0  0  0  0  0  0  0  0  0  0  0
   22.3003   23.3224   36.2108 C   0  0  0  0  0  0  0  0  0  0  0  0
   23.4726   23.9664   35.8215 C   0  0  0  0  0  0  0  0  0  0  0  0
   24.7794   27.0852   35.9227 H   0  0  0  0  0  0  0  0  0  0  0  0
   31.0673   27.9414   36.6394 H   0  0  0  0  0  0  0  0  0  0  0  0
   32.8486   27.8873   34.9214 H   0  0  0  0  0  0  0  0  0  0  0  0
   32.2655   27.1208   32.6249 H   0  0  0  0  0  0  0  0  0  0  0  0
   30.0114   26.2784   32.1079 H   0  0  0  0  0  0  0  0  0  0  0  0
   27.6985   26.2224   31.7181 H   0  0  0  0  0  0  0  0  0  0  0  0
   27.3401   24.6834   32.5419 H   0  0  0  0  0  0  0  0  0  0  0  0
   20.4286   26.0005   37.1133 H   0  0  0  0  0  0  0  0  0  0  0  0
   19.5230   20.5712   38.0479 H   0  0  0  0  0  0  0  0  0  0  0  0
   20.5631   19.6759   36.8920 H   0  0  0  0  0  0  0  0  0  0  0  0
   18.0130   21.2715   36.1519 H   0  0  0  0  0  0  0  0  0  0  0  0
   18.1323   19.4887   36.3248 H   0  0  0  0  0  0  0  0  0  0  0  0
   19.6395   21.2151   34.2544 H   0  0  0  0  0  0  0  0  0  0  0  0
   19.8376   19.4258   34.4660 H   0  0  0  0  0  0  0  0  0  0  0  0
   18.2511   20.1103   33.9453 H   0  0  0  0  0  0  0  0  0  0  0  0
   22.6969   21.3309   36.9440 H   0  0  0  0  0  0  0  0  0  0  0  0
   22.0821   21.4134   35.2188 H   0  0  0  0  0  0  0  0  0  0  0  0
   24.3268   23.3866   35.4981 H   0  0  0  0  0  0  0  0  0  0  0  0
  1  2  1  0
  2  3  2  0
  2  4  1  0
  4  5  2  0
  5  6  1  0
  6  7  2  0
  7  8  1  0
  8  9  2  0
  9 10  1  0
 10 11  2  0
 11 12  1  0
 12 13  2  0
 13 14  1  0
  1 15  1  0
 15 16  2  0
 16 17  1  0
 17 18  2  0
 18 19  1  0
 19 20  2  0
 19 21  1  0
 21 22  1  0
 22 23  1  0
 23 24  1  0
 21 25  1  0
 25 26  1  0
 26 27  2  0
 13  4  1  0
 27 15  1  0
 12  7  1  0
 26 18  1  0
  1 28  1  0
  8 29  1  0
  9 30  1  0
 10 31  1  0
 11 32  1  0
 14 33  1  0
 14 34  1  0
 17 35  1  0
 22 36  1  0
 22 37  1  0
 23 38  1  0
 23 39  1  0
 24 40  1  0
 24 41  1  0
 24 42  1  0
 25 43  1  0
 25 44  1  0
 27 45  1  0
M  END
$$$$
confid_3
     RDKit          3D

 45 48  0  0  0  0  0  0  0  0999 V2000
   24.6900   26.1200   35.5300 N   0  0  0  0  0  0  0  0  0  0  0  0
   25.6600   25.6700   34.6600 C   0  0  0  0  0  0  0  0  0  0  0  0
   25.2400   25.0100   33.7200 O   0  0  0  0  0  0  0  0  0  0  0  0
   27.0300   26.2200   34.8800 C   0  0  0  0  0  0  0  0  0  0  0  0
   27.3500   26.7300   36.0700 N   0  0  0  0  0  0  0  0  0  0  0  0
   28.5700   27.1800   36.3300 N   0  0  0  0  0  0  0  0  0  0  0  0
   29.5300   27.1100   35.3900 C   0  0  0  0  0  0  0  0  0  0  0  0
   30.8300   27.5700   35.6500 C   0  0  0  0  0  0  0  0  0  0  0  0
   31.8500   27.5400   34.6900 C   0  0  0  0  0  0  0  0  0  0  0  0
   31.5100   27.1200   33.4000 C   0  0  0  0  0  0  0  0  0  0  0  0
   30.2200   26.6300   33.1100 C   0  0  0  0  0  0  0  0  0  0  0  0
   29.2400   26.6600   34.1000 C   0  0  0  0  0  0  0  0  0  0  0  0
   27.9300   26.2600   33.8100 C   0  0  0  0  0  0  0  0  0  0  0  0
   27.5200   25.7100   32.6100 N   0  0  0  0  0  0  0  0  0  0  0  0
   23.5085   25.3810   35.8880 C   0  0  0  0  0  0  0  0  0  0  0  0
   22.4145   26.0653   36.3501 N   0  0  0  0  0  0  0  0  0  0  0  0
   21.2667   25.4358   36.7329 C   0  0  0  0  0  0  0  0  0  0  0  0
   21.2188   24.0494   36.6550 C   0  0  0  0  0  0  0  0  0  0  0  0
   20.1784   23.1155   36.9975 C   0  0  0  0  0  0  0  0  0  0  0  0
   19.0417   23.4089   37.4543 O   0  0  0  0  0  0  0  0  0  0  0  0
   20.6349   21.7876   36.7530 N   0  0  0  0  0  0  0  0  0  0  0  0
   19.9026   20.5592   37.0580 C   0  0  0  0  0  0  0  0  0  0  0  0
   20.3692   19.9446   38.3830 C   0  0  0  0  0  0  0  0  0  0  0  0
   20.0809   20.8513   39.5779 C   0  0  0  0  0  0  0  0  0  0  0  0
   22.0146   21.8496   36.2555 C   0  0  0  0  0  0  0  0  0  0  0  0
   22.2992   23.3247   36.2146 C   0  0  0  0  0  0  0  0  0  0  0  0
   23.4728   23.9676   35.8269 C   0  0  0  0  0  0  0  0  0  0  0  0
   24.7784   27.0859   35.9209 H   0  0  0  0  0  0  0  0  0  0  0  0
   31.0672   27.9417   36.6393 H   0  0  0  0  0  0  0  0  0  0  0  0
   32.8482   27.8886   34.9211 H   0  0  0  0  0  0  0  0  0  0  0  0
   32.2640   27.1262   32.6235 H   0  0  0  0  0  0  0  0  0  0  0  0
   30.0101   26.3033   32.1004 H   0  0  0  0  0  0  0  0  0  0  0  0
   26.6937   26.1023   32.1057 H   0  0  0  0  0  0  0  0  0  0  0  0
   28.1316   25.0435   32.0892 H   0  0  0  0  0  0  0  0  0  0  0  0
   20.4207   26.0063   37.0919 H   0  0  0  0  0  0  0  0  0  0  0  0
   18.8106   20.7633   37.0977 H   0  0  0  0  0  0  0  0  0  0  0  0
   20.0728   19.8255   36.2412 H   0  0  0  0  0  0  0  0  0  0  0  0
   19.8377   18.9802   38.5331 H   0  0  0  0  0  0  0  0  0  0  0  0
   21.4578   19.7267   38.3379 H   0  0  0  0  0  0  0  0  0  0  0  0
   20.3537   20.3244   40.5164 H   0  0  0  0  0  0  0  0  0  0  0  0
   20.6824   21.7824   39.5135 H   0  0  0  0  0  0  0  0  0  0  0  0
   19.0014   21.1100   39.6168 H   0  0  0  0  0  0  0  0  0  0  0  0
   22.0797   21.4078   35.2387 H   0  0  0  0  0  0  0  0  0  0  0  0
   22.7075   21.3430   36.9598 H   0  0  0  0  0  0  0  0  0  0  0  0
   24.3294   23.3869   35.5111 H   0  0  0  0  0  0  0  0  0  0  0  0
  1  2  1  0
  2  3  2  0
  2  4  1  0
  4  5  2  0
  5  6  1  0
  6  7  2  0
  7  8  1  0
  8  9  2  0
  9 10  1  0
 10 11  2  0
 11 12  1  0
 12 13  2  0
 13 14  1  0
  1 15  1  0
 15 16  2  0
 16 17  1  0
 17 18  2  0
 18 19  1  0
 19 20  2  0
 19 21  1  0
 21 22  1  0
 22 23  1  0
 23 24  1  0
 21 25  1  0
 25 26  1  0
 26 27  2  0
 13  4  1  0
 27 15  1  0
 12  7  1  0
 26 18  1  0
  1 28  1  0
  8 29  1  0
  9 30  1  0
 10 31  1  0
 11 32  1  0
 14 33  1  0
 14 34  1  0
 17 35  1  0
 22 36  1  0
 22 37  1  0
 23 38  1  0
 23 39  1  0
 24 40  1  0
 24 41  1  0
 24 42  1  0
 25 43  1  0
 25 44  1  0
 27 45  1  0
M  END
$$$$
confid_4
     RDKit          3D

 45 48  0  0  0  0  0  0  0  0999 V2000
   24.6900   26.1200   35.5300 N   0  0  0  0  0  0  0  0  0  0  0  0
   25.6600   25.6700   34.6600 C   0  0  0  0  0  0  0  0  0  0  0  0
   25.2400   25.0100   33.7200 O   0  0  0  0  0  0  0  0  0  0  0  0
   27.0300   26.2200   34.8800 C   0  0  0  0  0  0  0  0  0  0  0  0
   27.3500   26.7300   36.0700 N   0  0  0  0  0  0  0  0  0  0  0  0
   28.5700   27.1800   36.3300 N   0  0  0  0  0  0  0  0  0  0  0  0
   29.5300   27.1100   35.3900 C   0  0  0  0  0  0  0  0  0  0  0  0
   30.8300   27.5700   35.6500 C   0  0  0  0  0  0  0  0  0  0  0  0
   31.8500   27.5400   34.6900 C   0  0  0  0  0  0  0  0  0  0  0  0
   31.5100   27.1200   33.4000 C   0  0  0  0  0  0  0  0  0  0  0  0
   30.2200   26.6300   33.1100 C   0  0  0  0  0  0  0  0  0  0  0  0
   29.2400   26.6600   34.1000 C   0  0  0  0  0  0  0  0  0  0  0  0
   27.9300   26.2600   33.8100 C   0  0  0  0  0  0  0  0  0  0  0  0
   27.5200   25.7100   32.6100 N   0  0  0  0  0  0  0  0  0  0  0  0
   23.5010   25.3882   35.8790 C   0  0  0  0  0  0  0  0  0  0  0  0
   22.4120   26.0787   36.3440 N   0  0  0  0  0  0  0  0  0  0  0  0
   21.2572   25.4569   36.7180 C   0  0  0  0  0  0  0  0  0  0  0  0
   21.1958   24.0718   36.6267 C   0  0  0  0  0  0  0  0  0  0  0  0
   20.1439   23.1449   36.9538 C   0  0  0  0  0  0  0  0  0  0  0  0
   19.0114   23.4438   37.4174 O   0  0  0  0  0  0  0  0  0  0  0  0
   20.5866   21.8161   36.6913 N   0  0  0  0  0  0  0  0  0  0  0  0
   19.8305   20.5929   36.9474 C   0  0  0  0  0  0  0  0  0  0  0  0
   18.6993   20.4452   35.9266 C   0  0  0  0  0  0  0  0  0  0  0  0
   17.9161   19.1557   36.1533 C   0  0  0  0  0  0  0  0  0  0  0  0
   21.9693   21.8681   36.2038 C   0  0  0  0  0  0  0  0  0  0  0  0
   22.2706   23.3406   36.1823 C   0  0  0  0  0  0  0  0  0  0  0  0
   23.4519   23.9756   35.8047 C   0  0  0  0  0  0  0  0  0  0  0  0
   24.7827   27.0833   35.9263 H   0  0  0  0  0  0  0  0  0  0  0  0
   31.0672   27.9417   36.6393 H   0  0  0  0  0  0  0  0  0  0  0  0
   32.8482   27.8886   34.9210 H   0  0  0  0  0  0  0  0  0  0  0  0
   32.2640   27.1263   32.6235 H   0  0  0  0  0  0  0  0  0  0  0  0
   30.0100   26.3034   32.1004 H   0  0  0  0  0  0  0  0  0  0  0  0
   26.6936   26.1023   32.1057 H   0  0  0  0  0  0  0  0  0  0  0  0
   28.1316   25.0435   32.0892 H   0  0  0  0  0  0  0  0  0  0  0  0
   20.4153   26.0323   37.0788 H   0  0  0  0  0  0  0  0  0  0  0  0
   19.4169   20.6249   37.9788 H   0  0  0  0  0  0  0  0  0  0  0  0
   20.5100   19.7155   36.8734 H   0  0  0  0  0  0  0  0  0  0  0  0
   19.1265   20.4347   34.9002 H   0  0  0  0  0  0  0  0  0  0  0  0
   18.0034   21.3076   36.0081 H   0  0  0  0  0  0  0  0  0  0  0  0
   17.1027   19.0779   35.4014 H   0  0  0  0  0  0  0  0  0  0  0  0
   17.4640   19.1524   37.1680 H   0  0  0  0  0  0  0  0  0  0  0  0
   18.5841   18.2744   36.0460 H   0  0  0  0  0  0  0  0  0  0  0  0
   22.6483   21.3419   36.9080 H   0  0  0  0  0  0  0  0  0  0  0  0
   22.0353   21.4377   35.1822 H   0  0  0  0  0  0  0  0  0  0  0  0
   24.3037   23.3893   35.4861 H   0  0  0  0  0  0  0  0  0  0  0  0
  1  2  1  0
  2  3  2  0
  2  4  1  0
  4  5  2  0
  5  6  1  0
  6  7  2  0
  7  8  1  0
  8  9  2  0
  9 10  1  0
 10 11  2  0
 11 12  1  0
 12 13  2  0
 13 14  1  0
  1 15  1  0
 15 16  2  0
 16 17  1  0
 17 18  2  0
 18 19  1  0
 19 20  2  0
 19 21  1  0
 21 22  1  0
 22 23  1  0
 23 24  1  0
 21 25  1  0
 25 26  1  0
 26 27  2  0
 13  4  1  0
 27 15  1  0
 12  7  1  0
 26 18  1  0
  1 28  1  0
  8 29  1  0
  9 30  1  0
 10 31  1  0
 11 32  1  0
 14 33  1  0
 14 34  1  0
 17 35  1  0
 22 36  1  0
 22 37  1  0
 23 38  1  0
 23 39  1  0
 24 40  1  0
 24 41  1  0
 24 42  1  0
 25 43  1  0
 25 44  1  0
 27 45  1  0
M  END
$$$$
confid_5
     RDKit          3D

 45 48  0  0  0  0  0  0  0  0999 V2000
   24.6900   26.1200   35.5300 N   0  0  0  0  0  0  0  0  0  0  0  0
   25.6600   25.6700   34.6600 C   0  0  0  0  0  0  0  0  0  0  0  0
   25.2400   25.0100   33.7200 O   0  0  0  0  0  0  0  0  0  0  0  0
   27.0300   26.2200   34.8800 C   0  0  0  0  0  0  0  0  0  0  0  0
   27.3500   26.7300   36.0700 N   0  0  0  0  0  0  0  0  0  0  0  0
   28.5700   27.1800   36.3300 N   0  0  0  0  0  0  0  0  0  0  0  0
   29.5300   27.1100   35.3900 C   0  0  0  0  0  0  0  0  0  0  0  0
   30.8300   27.5700   35.6500 C   0  0  0  0  0  0  0  0  0  0  0  0
   31.8500   27.5400   34.6900 C   0  0  0  0  0  0  0  0  0  0  0  0
   31.5100   27.1200   33.4000 C   0  0  0  0  0  0  0  0  0  0  0  0
   30.2200   26.6300   33.1100 C   0  0  0  0  0  0  0  0  0  0  0  0
   29.2400   26.6600   34.1000 C   0  0  0  0  0  0  0  0  0  0  0  0
   27.9300   26.2600   33.8100 C   0  0  0  0  0  0  0  0  0  0  0  0
   27.5200   25.7100   32.6100 N   0  0  0  0  0  0  0  0  0  0  0  0
   23.3222   26.3873   35.1721 C   0  0  0  0  0  0  0  0  0  0  0  0
   22.3520   26.2685   36.1329 N   0  0  0  0  0  0  0  0  0  0  0  0
   21.0374   26.5275   35.8802 C   0  0  0  0  0  0  0  0  0  0  0  0
   20.6809   26.9322   34.5997 C   0  0  0  0  0  0  0  0  0  0  0  0
   19.4017   27.2787   34.0369 C   0  0  0  0  0  0  0  0  0  0  0  0
   18.3012   27.2882   34.6503 O   0  0  0  0  0  0  0  0  0  0  0  0
   19.5696   27.6361   32.6675 N   0  0  0  0  0  0  0  0  0  0  0  0
   18.5153   28.0834   31.7608 C   0  0  0  0  0  0  0  0  0  0  0  0
   17.6047   26.9109   31.3861 C   0  0  0  0  0  0  0  0  0  0  0  0
   16.5321   27.3410   30.3904 C   0  0  0  0  0  0  0  0  0  0  0  0
   20.9954   27.5512   32.3302 C   0  0  0  0  0  0  0  0  0  0  0  0
   21.6249   27.0833   33.6130 C   0  0  0  0  0  0  0  0  0  0  0  0
   22.9690   26.8234   33.8732 C   0  0  0  0  0  0  0  0  0  0  0  0
   24.9288   26.1938   36.5450 H   0  0  0  0  0  0  0  0  0  0  0  0
   31.0673   27.9414   36.6393 H   0  0  0  0  0  0  0  0  0  0  0  0
   32.8486   27.8874   34.9215 H   0  0  0  0  0  0  0  0  0  0  0  0
   32.2655   27.1210   32.6249 H   0  0  0  0  0  0  0  0  0  0  0  0
   30.0115   26.2787   32.1077 H   0  0  0  0  0  0  0  0  0  0  0  0
   27.6967   26.2235   31.7184 H   0  0  0  0  0  0  0  0  0  0  0  0
   27.3416   24.6831   32.5418 H   0  0  0  0  0  0  0  0  0  0  0  0
   20.2963   26.4221   36.6620 H   0  0  0  0  0  0  0  0  0  0  0  0
   18.9740   28.5009   30.8371 H   0  0  0  0  0  0  0  0  0  0  0  0
   17.9250   28.8882   32.2507 H   0  0  0  0  0  0  0  0  0  0  0  0
   18.2142   26.0984   30.9338 H   0  0  0  0  0  0  0  0  0  0  0  0
   17.1099   26.5124   32.2970 H   0  0  0  0  0  0  0  0  0  0  0  0
   15.9005   28.1441   30.8269 H   0  0  0  0  0  0  0  0  0  0  0  0
   17.0001   27.7101   29.4534 H   0  0  0  0  0  0  0  0  0  0  0  0
   15.8838   26.4733   30.1455 H   0  0  0  0  0  0  0  0  0  0  0  0
   21.3855   28.5523   32.0473 H   0  0  0  0  0  0  0  0  0  0  0  0
   21.1573   26.8129   31.5170 H   0  0  0  0  0  0  0  0  0  0  0  0
   23.7110   26.9766   33.1010 H   0  0  0  0  0  0  0  0  0  0  0  0
  1  2  1  0
  2  3  2  0
  2  4  1  0
  4  5  2  0
  5  6  1  0
  6  7  2  0
  7  8  1  0
  8  9  2  0
  9 10  1  0
 10 11  2  0
 11 12  1  0
 12 13  2  0
 13 14  1  0
  1 15  1  0
 15 16  2  0
 16 17  1  0
 17 18  2  0
 18 19  1  0
 19 20  2  0
 19 21  1  0
 21 22  1  0
 22 23  1  0
 23 24  1  0
 21 25  1  0
 25 26  1  0
 26 27  2  0
 13  4  1  0
 27 15  1  0
 12  7  1  0
 26 18  1  0
  1 28  1  0
  8 29  1  0
  9 30  1  0
 10 31  1  0
 11 32  1  0
 14 33  1  0
 14 34  1  0
 17 35  1  0
 22 36  1  0
 22 37  1  0
 23 38  1  0
 23 39  1  0
 24 40  1  0
 24 41  1  0
 24 42  1  0
 25 43  1  0
 25 44  1  0
 27 45  1  0
M  END
$$$$
confid_6
     RDKit          3D

 45 48  0  0  0  0  0  0  0  0999 V2000
   24.6900   26.1200   35.5300 N   0  0  0  0  0  0  0  0  0  0  0  0
   25.6600   25.6700   34.6600 C   0  0  0  0  0  0  0  0  0  0  0  0
   25.2400   25.0100   33.7200 O   0  0  0  0  0  0  0  0  0  0  0  0
   27.0300   26.2200   34.8800 C   0  0  0  0  0  0  0  0  0  0  0  0
   27.3500   26.7300   36.0700 N   0  0  0  0  0  0  0  0  0  0  0  0
   28.5700   27.1800   36.3300 N   0  0  0  0  0  0  0  0  0  0  0  0
   29.5300   27.1100   35.3900 C   0  0  0  0  0  0  0  0  0  0  0  0
   30.8300   27.5700   35.6500 C   0  0  0  0  0  0  0  0  0  0  0  0
   31.8500   27.5400   34.6900 C   0  0  0  0  0  0  0  0  0  0  0  0
   31.5100   27.1200   33.4000 C   0  0  0  0  0  0  0  0  0  0  0  0
   30.2200   26.6300   33.1100 C   0  0  0  0  0  0  0  0  0  0  0  0
   29.2400   26.6600   34.1000 C   0  0  0  0  0  0  0  0  0  0  0  0
   27.9300   26.2600   33.8100 C   0  0  0  0  0  0  0  0  0  0  0  0
   27.5200   25.7100   32.6100 N   0  0  0  0  0  0  0  0  0  0  0  0
   23.4961   25.3840   35.8561 C   0  0  0  0  0  0  0  0  0  0  0  0
   23.3490   24.0784   35.4590 N   0  0  0  0  0  0  0  0  0  0  0  0
   22.2408   23.3442   35.7638 C   0  0  0  0  0  0  0  0  0  0  0  0
   21.2351   23.9487   36.5084 C   0  0  0  0  0  0  0  0  0  0  0  0
   19.9715   23.4466   36.9814 C   0  0  0  0  0  0  0  0  0  0  0  0
   19.5072   22.2947   36.7715 O   0  0  0  0  0  0  0  0  0  0  0  0
   19.3040   24.4668   37.7194 N   0  0  0  0  0  0  0  0  0  0  0  0
   17.9713   24.3676   38.3087 C   0  0  0  0  0  0  0  0  0  0  0  0
   18.0039   23.4664   39.5455 C   0  0  0  0  0  0  0  0  0  0  0  0
   16.6277   23.3738   40.1974 C   0  0  0  0  0  0  0  0  0  0  0  0
   20.1368   25.6746   37.7125 C   0  0  0  0  0  0  0  0  0  0  0  0
   21.3484   25.2515   36.9303 C   0  0  0  0  0  0  0  0  0  0  0  0
   22.4808   26.0006   36.6174 C   0  0  0  0  0  0  0  0  0  0  0  0
   24.8245   27.0460   35.9978 H   0  0  0  0  0  0  0  0  0  0  0  0
   31.0673   27.9414   36.6394 H   0  0  0  0  0  0  0  0  0  0  0  0
   32.8486   27.8872   34.9214 H   0  0  0  0  0  0  0  0  0  0  0  0
   32.2655   27.1208   32.6249 H   0  0  0  0  0  0  0  0  0  0  0  0
   30.0114   26.2784   32.1078 H   0  0  0  0  0  0  0  0  0  0  0  0
   27.6979   26.2228   31.7183 H   0  0  0  0  0  0  0  0  0  0  0  0
   27.3407   24.6833   32.5418 H   0  0  0  0  0  0  0  0  0  0  0  0
   22.1539   22.3176   35.4338 H   0  0  0  0  0  0  0  0  0  0  0  0
   17.6199   25.3814   38.6012 H   0  0  0  0  0  0  0  0  0  0  0  0
   17.2643   23.9605   37.5536 H   0  0  0  0  0  0  0  0  0  0  0  0
   18.3356   22.4454   39.2589 H   0  0  0  0  0  0  0  0  0  0  0  0
   18.7280   23.8766   40.2827 H   0  0  0  0  0  0  0  0  0  0  0  0
   16.6822   22.7134   41.0883 H   0  0  0  0  0  0  0  0  0  0  0  0
   15.8909   22.9474   39.4835 H   0  0  0  0  0  0  0  0  0  0  0  0
   16.2854   24.3798   40.5214 H   0  0  0  0  0  0  0  0  0  0  0  0
   20.4164   25.9571   38.7496 H   0  0  0  0  0  0  0  0  0  0  0  0
   19.6104   26.5051   37.1958 H   0  0  0  0  0  0  0  0  0  0  0  0
   22.5711   27.0266   36.9508 H   0  0  0  0  0  0  0  0  0  0  0  0
  1  2  1  0
  2  3  2  0
  2  4  1  0
  4  5  2  0
  5  6  1  0
  6  7  2  0
  7  8  1  0
  8  9  2  0
  9 10  1  0
 10 11  2  0
 11 12  1  0
 12 13  2  0
 13 14  1  0
  1 15  1  0
 15 16  2  0
 16 17  1  0
 17 18  2  0
 18 19  1  0
 19 20  2  0
 19 21  1  0
 21 22  1  0
 22 23  1  0
 23 24  1  0
 21 25  1  0
 25 26  1  0
 26 27  2  0
 13  4  1  0
 27 15  1  0
 12  7  1  0
 26 18  1  0
  1 28  1  0
  8 29  1  0
  9 30  1  0
 10 31  1  0
 11 32  1  0
 14 33  1  0
 14 34  1  0
 17 35  1  0
 22 36  1  0
 22 37  1  0
 23 38  1  0
 23 39  1  0
 24 40  1  0
 24 41  1  0
 24 42  1  0
 25 43  1  0
 25 44  1  0
 27 45  1  0
M  END
$$$$
confid_7
     RDKit          3D

 45 48  0  0  0  0  0  0  0  0999 V2000
   24.6900   26.1200   35.5300 N   0  0  0  0  0  0  0  0  0  0  0  0
   25.6600   25.6700   34.6600 C   0  0  0  0  0  0  0  0  0  0  0  0
   25.2400   25.0100   33.7200 O   0  0  0  0  0  0  0  0  0  0  0  0
   27.0300   26.2200   34.8800 C   0  0  0  0  0  0  0  0  0  0  0  0
   27.3500   26.7300   36.0700 N   0  0  0  0  0  0  0  0  0  0  0  0
   28.5700   27.1800   36.3300 N   0  0  0  0  0  0  0  0  0  0  0  0
   29.5300   27.1100   35.3900 C   0  0  0  0  0  0  0  0  0  0  0  0
   30.8300   27.5700   35.6500 C   0  0  0  0  0  0  0  0  0  0  0  0
   31.8500   27.5400   34.6900 C   0  0  0  0  0  0  0  0  0  0  0  0
   31.5100   27.1200   33.4000 C   0  0  0  0  0  0  0  0  0  0  0  0
   30.2200   26.6300   33.1100 C   0  0  0  0  0  0  0  0  0  0  0  0
   29.2400   26.6600   34.1000 C   0  0  0  0  0  0  0  0  0  0  0  0
   27.9300   26.2600   33.8100 C   0  0  0  0  0  0  0  0  0  0  0  0
   27.5200   25.7100   32.6100 N   0  0  0  0  0  0  0  0  0  0  0  0
   23.3228   26.3904   35.1705 C   0  0  0  0  0  0  0  0  0  0  0  0
   22.3527   26.2858   36.1331 N   0  0  0  0  0  0  0  0  0  0  0  0
   21.0389   26.5469   35.8778 C   0  0  0  0  0  0  0  0  0  0  0  0
   20.6831   26.9396   34.5933 C   0  0  0  0  0  0  0  0  0  0  0  0
   19.4051   27.2815   34.0263 C   0  0  0  0  0  0  0  0  0  0  0  0
   18.3022   27.2829   34.6351 O   0  0  0  0  0  0  0  0  0  0  0  0
   19.5734   27.6272   32.6539 N   0  0  0  0  0  0  0  0  0  0  0  0
   18.5195   28.0842   31.7487 C   0  0  0  0  0  0  0  0  0  0  0  0
   18.5521   29.6071   31.5777 C   0  0  0  0  0  0  0  0  0  0  0  0
   18.2791   30.3441   32.8874 C   0  0  0  0  0  0  0  0  0  0  0  0
   20.9992   27.5323   32.3169 C   0  0  0  0  0  0  0  0  0  0  0  0
   21.6270   27.0772   33.6049 C   0  0  0  0  0  0  0  0  0  0  0  0
   22.9704   26.8165   33.8678 C   0  0  0  0  0  0  0  0  0  0  0  0
   24.9283   26.1928   36.5451 H   0  0  0  0  0  0  0  0  0  0  0  0
   31.0673   27.9414   36.6393 H   0  0  0  0  0  0  0  0  0  0  0  0
   32.8486   27.8872   34.9214 H   0  0  0  0  0  0  0  0  0  0  0  0
   32.2654   27.1208   32.6249 H   0  0  0  0  0  0  0  0  0  0  0  0
   30.0113   26.2785   32.1078 H   0  0  0  0  0  0  0  0  0  0  0  0
   27.6964   26.2236   31.7184 H   0  0  0  0  0  0  0  0  0  0  0  0
   27.3408   24.6833   32.5415 H   0  0  0  0  0  0  0  0  0  0  0  0
   20.2975   26.4499   36.6596 H   0  0  0  0  0  0  0  0  0  0  0  0
   17.5239   27.7669   32.1281 H   0  0  0  0  0  0  0  0  0  0  0  0
   18.6633   27.6069   30.7559 H   0  0  0  0  0  0  0  0  0  0  0  0
   17.7750   29.8971   30.8377 H   0  0  0  0  0  0  0  0  0  0  0  0
   19.5377   29.9230   31.1736 H   0  0  0  0  0  0  0  0  0  0  0  0
   19.1000   30.1635   33.6132 H   0  0  0  0  0  0  0  0  0  0  0  0
   17.3163   30.0085   33.3280 H   0  0  0  0  0  0  0  0  0  0  0  0
   18.2193   31.4355   32.6918 H   0  0  0  0  0  0  0  0  0  0  0  0
   21.3980   28.5259   32.0220 H   0  0  0  0  0  0  0  0  0  0  0  0
   21.1581   26.7803   31.5153 H   0  0  0  0  0  0  0  0  0  0  0  0
   23.7117   26.9581   33.0926 H   0  0  0  0  0  0  0  0  0  0  0  0
  1  2  1  0
  2  3  2  0
  2  4  1  0
  4  5  2  0
  5  6  1  0
  6  7  2  0
  7  8  1  0
  8  9  2  0
  9 10  1  0
 10 11  2  0
 11 12  1  0
 12 13  2  0
 13 14  1  0
  1 15  1  0
 15 16  2  0
 16 17  1  0
 17 18  2  0
 18 19  1  0
 19 20  2  0
 19 21  1  0
 21 22  1  0
 22 23  1  0
 23 24  1  0
 21 25  1  0
 25 26  1  0
 26 27  2  0
 13  4  1  0
 27 15  1  0
 12  7  1  0
 26 18  1  0
  1 28  1  0
  8 29  1  0
  9 30  1  0
 10 31  1  0
 11 32  1  0
 14 33  1  0
 14 34  1  0
 17 35  1  0
 22 36  1  0
 22 37  1  0
 23 38  1  0
 23 39  1  0
 24 40  1  0
 24 41  1  0
 24 42  1  0
 25 43  1  0
 25 44  1  0
 27 45  1  0
M  END
$$$$
confid_8
     RDKit          3D

 45 48  0  0  0  0  0  0  0  0999 V2000
   24.6900   26.1200   35.5300 N   0  0  0  0  0  0  0  0  0  0  0  0
   25.6600   25.6700   34.6600 C   0  0  0  0  0  0  0  0  0  0  0  0
   25.2400   25.0100   33.7200 O   0  0  0  0  0  0  0  0  0  0  0  0
   27.0300   26.2200   34.8800 C   0  0  0  0  0  0  0  0  0  0  0  0
   27.3500   26.7300   36.0700 N   0  0  0  0  0  0  0  0  0  0  0  0
   28.5700   27.1800   36.3300 N   0  0  0  0  0  0  0  0  0  0  0  0
   29.5300   27.1100   35.3900 C   0  0  0  0  0  0  0  0  0  0  0  0
   30.8300   27.5700   35.6500 C   0  0  0  0  0  0  0  0  0  0  0  0
   31.8500   27.5400   34.6900 C   0  0  0  0  0  0  0  0  0  0  0  0
   31.5100   27.1200   33.4000 C   0  0  0  0  0  0  0  0  0  0  0  0
   30.2200   26.6300   33.1100 C   0  0  0  0  0  0  0  0  0  0  0  0
   29.2400   26.6600   34.1000 C   0  0  0  0  0  0  0  0  0  0  0  0
   27.9300   26.2600   33.8100 C   0  0  0  0  0  0  0  0  0  0  0  0
   27.5200   25.7100   32.6100 N   0  0  0  0  0  0  0  0  0  0  0  0
   23.4942   25.3857   35.8529 C   0  0  0  0  0  0  0  0  0  0  0  0
   23.3491   24.0784   35.4607 N   0  0  0  0  0  0  0  0  0  0  0  0
   22.2393   23.3455   35.7631 C   0  0  0  0  0  0  0  0  0  0  0  0
   21.2290   23.9539   36.4982 C   0  0  0  0  0  0  0  0  0  0  0  0
   19.9643   23.4530   36.9696 C   0  0  0  0  0  0  0  0  0  0  0  0
   19.5218   22.2856   36.8026 O   0  0  0  0  0  0  0  0  0  0  0  0
   19.2836   24.4831   37.6812 N   0  0  0  0  0  0  0  0  0  0  0  0
   18.0002   24.3497   38.3655 C   0  0  0  0  0  0  0  0  0  0  0  0
   16.8610   24.2715   37.3461 C   0  0  0  0  0  0  0  0  0  0  0  0
   15.5062   24.1653   38.0394 C   0  0  0  0  0  0  0  0  0  0  0  0
   20.1302   25.6811   37.6999 C   0  0  0  0  0  0  0  0  0  0  0  0
   21.3404   25.2584   36.9154 C   0  0  0  0  0  0  0  0  0  0  0  0
   22.4756   26.0053   36.6073 C   0  0  0  0  0  0  0  0  0  0  0  0
   24.8246   27.0457   35.9982 H   0  0  0  0  0  0  0  0  0  0  0  0
   31.0673   27.9414   36.6394 H   0  0  0  0  0  0  0  0  0  0  0  0
   32.8486   27.8872   34.9214 H   0  0  0  0  0  0  0  0  0  0  0  0
   32.2655   27.1208   32.6249 H   0  0  0  0  0  0  0  0  0  0  0  0
   30.0114   26.2784   32.1078 H   0  0  0  0  0  0  0  0  0  0  0  0
   27.3407   24.6833   32.5418 H   0  0  0  0  0  0  0  0  0  0  0  0
   27.6979   26.2228   31.7183 H   0  0  0  0  0  0  0  0  0  0  0  0
   22.1545   22.3173   35.4381 H   0  0  0  0  0  0  0  0  0  0  0  0
   17.8412   25.2286   39.0282 H   0  0  0  0  0  0  0  0  0  0  0  0
   18.0139   23.4363   38.9990 H   0  0  0  0  0  0  0  0  0  0  0  0
   17.0010   23.3839   36.6924 H   0  0  0  0  0  0  0  0  0  0  0  0
   16.8723   25.1822   36.7085 H   0  0  0  0  0  0  0  0  0  0  0  0
   15.3276   25.0577   38.6765 H   0  0  0  0  0  0  0  0  0  0  0  0
   15.4657   23.2507   38.6686 H   0  0  0  0  0  0  0  0  0  0  0  0
   14.7018   24.1074   37.2762 H   0  0  0  0  0  0  0  0  0  0  0  0
   19.6130   26.5277   37.2006 H   0  0  0  0  0  0  0  0  0  0  0  0
   20.4130   25.9393   38.7426 H   0  0  0  0  0  0  0  0  0  0  0  0
   22.5657   27.0317   36.9394 H   0  0  0  0  0  0  0  0  0  0  0  0
  1  2  1  0
  2  3  2  0
  2  4  1  0
  4  5  2  0
  5  6  1  0
  6  7  2  0
  7  8  1  0
  8  9  2  0
  9 10  1  0
 10 11  2  0
 11 12  1  0
 12 13  2  0
 13 14  1  0
  1 15  1  0
 15 16  2  0
 16 17  1  0
 17 18  2  0
 18 19  1  0
 19 20  2  0
 19 21  1  0
 21 22  1  0
 22 23  1  0
 23 24  1  0
 21 25  1  0
 25 26  1  0
 26 27  2  0
 13  4  1  0
 27 15  1  0
 12  7  1  0
 26 18  1  0
  1 28  1  0
  8 29  1  0
  9 30  1  0
 10 31  1  0
 11 32  1  0
 14 33  1  0
 14 34  1  0
 17 35  1  0
 22 36  1  0
 22 37  1  0
 23 38  1  0
 23 39  1  0
 24 40  1  0
 24 41  1  0
 24 42  1  0
 25 43  1  0
 25 44  1  0
 27 45  1  0
M  END
$$$$
