confid_0
     RDKit          3D

 51 55  0  0  0  0  0  0  0  0999 V2000
   24.6900   26.1200   35.5300 N   0  0  0  0  0  0  0  0  0  0  0  0
   25.6600   25.6700   34.6600 C   0  0  0  0  0  0  0  0  0  0  0  0
   25.2400   25.0100   33.7200 O   0  0  0  0  0  0  0  0  0  0  0  0
   27.0300   26.2200   34.8800 C   0  0  0  0  0  0  0  0  0  0  0  0
   27.3500   26.7300   36.0700 N   0  0  0  0  0  0  0  0  0  0  0  0
   28.5700   27.1800   36.3300 N   0  0  0  0  0  0  0  0  0  0  0  0
   29.5300   27.1100   35.3900 C   0  0  0  0  0  0  0  0  0  0  0  0
   30.8300   27.5700   35.6500 C   0  0  0  0  0  0  0  0  0  0  0  0
   31.8500   27.5400   34.6900 C   0  0  0  0  0  0  0  0  0  0  0  0
   31.5100   27.1200   33.4000 C   0  0  0  0  0  0  0  0  0  0  0  0
   30.2200   26.6300   33.1100 C   0  0  0  0  0  0  0  0  0  0  0  0
   29.2400   26.6600   34.1000 C   0  0  0  0  0  0  0  0  0  0  0  0
   27.9300   26.2600   33.8100 C   0  0  0  0  0  0  0  0  0  0  0  0
   27.5200   25.7100   32.6100 N   0  0  0  0  0  0  0  0  0  0  0  0
   23.4771   25.4005   35.8312 C   0  0  0  0  0  0  0  0  0  0  0  0
   23.4339   24.1206   35.5792 N   0  0  0  0  0  0  0  0  0  0  0  0
   22.4011   23.1455   35.7637 C   0  0  0  0  0  0  0  0  0  0  0  0
   21.1345   23.3737   35.4491 C   0  0  0  0  0  0  0  0  0  0  0  0
   19.9015   22.5674   35.1656 C   0  0  0  0  0  0  0  0  0  0  0  0
   19.1230   23.6584   34.7952 O   0  0  0  0  0  0  0  0  0  0  0  0
   20.2049   24.4882   35.0793 C   0  0  0  0  0  0  0  0  0  0  0  0
   19.8775   25.3760   36.2782 C   0  0  0  0  0  0  0  0  0  0  0  0
   21.0504   26.1586   36.7677 C   0  0  0  0  0  0  0  0  0  0  0  0
   22.4274   26.1304   36.5788 C   0  0  0  0  0  0  0  0  0  0  0  0
   22.4989   27.2681   37.4415 C   0  0  0  0  0  0  0  0  0  0  0  0
   21.1282   27.2990   37.6889 N   0  0  0  0  0  0  0  0  0  0  0  0
   20.2209   28.1087   38.4940 C   0  0  0  0  0  0  0  0  0  0  0  0
   19.2708   28.8911   37.5875 C   0  0  0  0  0  0  0  0  0  0  0  0
   19.4491   27.2182   39.4677 C   0  0  0  0  0  0  0  0  0  0  0  0
   24.8262   27.0519   35.9835 H   0  0  0  0  0  0  0  0  0  0  0  0
   31.0672   27.9417   36.6393 H   0  0  0  0  0  0  0  0  0  0  0  0
   32.8482   27.8886   34.9211 H   0  0  0  0  0  0  0  0  0  0  0  0
   32.2640   27.1263   32.6235 H   0  0  0  0  0  0  0  0  0  0  0  0
   30.0101   26.3033   32.1004 H   0  0  0  0  0  0  0  0  0  0  0  0
   26.6936   26.1022   32.1058 H   0  0  0  0  0  0  0  0  0  0  0  0
   28.1316   25.0436   32.0892 H   0  0  0  0  0  0  0  0  0  0  0  0
   22.7005   22.1146   35.8944 H   0  0  0  0  0  0  0  0  0  0  0  0
   19.5041   22.0723   36.0791 H   0  0  0  0  0  0  0  0  0  0  0  0
   20.0470   21.8675   34.3136 H   0  0  0  0  0  0  0  0  0  0  0  0
   20.5400   25.0540   34.1810 H   0  0  0  0  0  0  0  0  0  0  0  0
   19.0783   26.0855   35.9813 H   0  0  0  0  0  0  0  0  0  0  0  0
   19.4906   24.7612   37.1197 H   0  0  0  0  0  0  0  0  0  0  0  0
   23.0736   27.0562   38.3703 H   0  0  0  0  0  0  0  0  0  0  0  0
   22.8317   28.1879   36.9107 H   0  0  0  0  0  0  0  0  0  0  0  0
   20.8215   28.8365   39.0822 H   0  0  0  0  0  0  0  0  0  0  0  0
   18.6163   28.2034   37.0129 H   0  0  0  0  0  0  0  0  0  0  0  0
   19.8553   29.5096   36.8737 H   0  0  0  0  0  0  0  0  0  0  0  0
   18.6328   29.5664   38.1966 H   0  0  0  0  0  0  0  0  0  0  0  0
   20.1607   26.6563   40.1092 H   0  0  0  0  0  0  0  0  0  0  0  0
   18.8013   27.8396   40.1220 H   0  0  0  0  0  0  0  0  0  0  0  0
   18.8136   26.4928   38.9171 H   0  0  0  0  0  0  0  0  0  0  0  0
  1  2  1  0
  2  3  2  0
  2  4  1  0
  4  5  2  0
  5  6  1  0
  6  7  2  0
  7  8  1  0
  8  9  2  0
  9 10  1  0
 10 11  2  0
 11 12  1  0
 12 13  2  0
 13 14  1  0
  1 15  1  0
 15 16  2  0
 16 17  1  0
 17 18  2  0
 18 19  1  0
 19 20  1  0
 20 21  1  0
 21 22  1  0
 22 23  1  0
 23 24  2  0
 24 25  1  0
 25 26  1  0
 26 27  1  0
 27 28  1  0
 27 29  1  0
 13  4  1  0
 24 15  1  0
 12  7  1  0
 21 18  1  0
 26 23  1  0
  1 30  1  0
  8 31  1  0
  9 32  1  0
 10 33  1  0
 11 34  1  0
 14 35  1  0
 14 36  1  0
 17 37  1  0
 19 38  1  0
 19 39  1  0
 21 40  1  0
 22 41  1  0
 22 42  1  0
 25 43  1  0
 25 44  1  0
 27 45  1  0
 28 46  1  0
 28 47  1  0
 28 48  1  0
 29 49  1  0
 29 50  1  0
 29 51  1  0
M  END
$$$$
