confid_0
     RDKit          3D

 45 48  0  0  0  0  0  0  0  0999 V2000
   24.2000   26.2400   35.6900 N   0  0  0  0  0  0  0  0  0  0  0  0
   24.8500   26.2800   34.4800 C   0  0  0  0  0  0  0  0  0  0  0  0
   24.3100   25.7400   33.5400 O   0  0  0  0  0  0  0  0  0  0  0  0
   26.1800   26.9700   34.4700 C   0  0  0  0  0  0  0  0  0  0  0  0
   26.6500   27.6000   35.5500 N   0  0  0  0  0  0  0  0  0  0  0  0
   27.7900   28.2700   35.6200 N   0  0  0  0  0  0  0  0  0  0  0  0
   28.5400   28.3000   34.5100 C   0  0  0  0  0  0  0  0  0  0  0  0
   29.7700   28.9400   34.5600 C   0  0  0  0  0  0  0  0  0  0  0  0
   30.7000   28.8900   33.5000 C   0  0  0  0  0  0  0  0  0  0  0  0
   30.3700   28.1400   32.3700 C   0  0  0  0  0  0  0  0  0  0  0  0
   29.1200   27.5200   32.2800 C   0  0  0  0  0  0  0  0  0  0  0  0
   28.2100   27.6100   33.3300 C   0  0  0  0  0  0  0  0  0  0  0  0
   26.9700   26.9700   33.3100 C   0  0  0  0  0  0  0  0  0  0  0  0
   26.5300   26.2400   32.2200 N   0  0  0  0  0  0  0  0  0  0  0  0
   23.2793   25.2082   36.0882 C   0  0  0  0  0  0  0  0  0  0  0  0
   22.3037   25.5075   36.9883 N   0  0  0  0  0  0  0  0  0  0  0  0
   21.4132   24.5806   37.4287 C   0  0  0  0  0  0  0  0  0  0  0  0
   21.4751   23.2635   36.9575 C   0  0  0  0  0  0  0  0  0  0  0  0
   20.5319   22.2148   37.4957 C   0  0  0  0  0  0  0  0  0  0  0  0
   20.2705   21.1217   36.4532 C   0  0  0  0  0  0  0  0  0  0  0  0
   21.5380   20.5858   35.9398 N   0  0  0  0  0  0  0  0  0  0  0  0
   22.5828   21.5117   35.5856 C   0  0  0  0  0  0  0  0  0  0  0  0
   23.5673   21.1303   34.8948 O   0  0  0  0  0  0  0  0  0  0  0  0
   22.4949   22.9109   36.0549 C   0  0  0  0  0  0  0  0  0  0  0  0
   23.4034   23.8878   35.6214 C   0  0  0  0  0  0  0  0  0  0  0  0
   21.6740   19.1513   35.6617 C   0  0  0  0  0  0  0  0  0  0  0  0
   21.2191   18.8394   34.2406 C   0  0  0  0  0  0  0  0  0  0  0  0
   24.3013   27.0525   36.3399 H   0  0  0  0  0  0  0  0  0  0  0  0
   30.0500   29.4789   35.4574 H   0  0  0  0  0  0  0  0  0  0  0  0
   31.6575   29.3888   33.5759 H   0  0  0  0  0  0  0  0  0  0  0  0
   31.0739   28.0595   31.5517 H   0  0  0  0  0  0  0  0  0  0  0  0
   28.8953   26.9543   31.3856 H   0  0  0  0  0  0  0  0  0  0  0  0
   26.6268   26.6227   31.2535 H   0  0  0  0  0  0  0  0  0  0  0  0
   26.3228   25.2206   32.3145 H   0  0  0  0  0  0  0  0  0  0  0  0
   20.6606   24.8705   38.1506 H   0  0  0  0  0  0  0  0  0  0  0  0
   19.5617   22.6764   37.7821 H   0  0  0  0  0  0  0  0  0  0  0  0
   20.9830   21.7582   38.4028 H   0  0  0  0  0  0  0  0  0  0  0  0
   19.6549   20.3186   36.9129 H   0  0  0  0  0  0  0  0  0  0  0  0
   19.6925   21.5539   35.6074 H   0  0  0  0  0  0  0  0  0  0  0  0
   24.2058   23.6194   34.9465 H   0  0  0  0  0  0  0  0  0  0  0  0
   22.7305   18.8326   35.7954 H   0  0  0  0  0  0  0  0  0  0  0  0
   21.0641   18.5599   36.3782 H   0  0  0  0  0  0  0  0  0  0  0  0
   20.1548   19.1286   34.1091 H   0  0  0  0  0  0  0  0  0  0  0  0
   21.3212   17.7510   34.0459 H   0  0  0  0  0  0  0  0  0  0  0  0
   21.8408   19.3940   33.5066 H   0  0  0  0  0  0  0  0  0  0  0  0
  1  2  1  0
  2  3  2  0
  2  4  1  0
  4  5  2  0
  5  6  1  0
  6  7  2  0
  7  8  1  0
  8  9  2  0
  9 10  1  0
 10 11  2  0
 11 12  1  0
 12 13  2  0
 13 14  1  0
  1 15  1  0
 15 16  2  0
 16 17  1  0
 17 18  2  0
 18 19  1  0
 19 20  1  0
 20 21  1  0
 21 22  1  0
 22 23  2  0
 22 24  1  0
 24 25  2  0
 21 26  1  0
 26 27  1  0
 13  4  1  0
 25 15  1  0
 12  7  1  0
 24 18  1  0
  1 28  1  0
  8 29  1  0
  9 30  1  0
 10 31  1  0
 11 32  1  0
 14 33  1  0
 14 34  1  0
 17 35  1  0
 19 36  1  0
 19 37  1  0
 20 38  1  0
 20 39  1  0
 25 40  1  0
 26 41  1  0
 26 42  1  0
 27 43  1  0
 27 44  1  0
 27 45  1  0
M  END
$$$$
confid_1
     RDKit          3D

 45 48  0  0  0  0  0  0  0  0999 V2000
   24.2000   26.2400   35.6900 N   0  0  0  0  0  0  0  0  0  0  0  0
   24.8500   26.2800   34.4800 C   0  0  0  0  0  0  0  0  0  0  0  0
   24.3100   25.7400   33.5400 O   0  0  0  0  0  0  0  0  0  0  0  0
   26.1800   26.9700   34.4700 C   0  0  0  0  0  0  0  0  0  0  0  0
   26.6500   27.6000   35.5500 N   0  0  0  0  0  0  0  0  0  0  0  0
   27.7900   28.2700   35.6200 N   0  0  0  0  0  0  0  0  0  0  0  0
   28.5400   28.3000   34.5100 C   0  0  0  0  0  0  0  0  0  0  0  0
   29.7700   28.9400   34.5600 C   0  0  0  0  0  0  0  0  0  0  0  0
   30.7000   28.8900   33.5000 C   0  0  0  0  0  0  0  0  0  0  0  0
   30.3700   28.1400   32.3700 C   0  0  0  0  0  0  0  0  0  0  0  0
   29.1200   27.5200   32.2800 C   0  0  0  0  0  0  0  0  0  0  0  0
   28.2100   27.6100   33.3300 C   0  0  0  0  0  0  0  0  0  0  0  0
   26.9700   26.9700   33.3100 C   0  0  0  0  0  0  0  0  0  0  0  0
   26.5300   26.2400   32.2200 N   0  0  0  0  0  0  0  0  0  0  0  0
   22.7733   26.1367   35.8468 C   0  0  0  0  0  0  0  0  0  0  0  0
   22.2745   25.5569   36.9723 N   0  0  0  0  0  0  0  0  0  0  0  0
   20.9397   25.4432   37.1998 C   0  0  0  0  0  0  0  0  0  0  0  0
   20.0207   25.9290   36.2618 C   0  0  0  0  0  0  0  0  0  0  0  0
   18.5384   25.8655   36.5408 C   0  0  0  0  0  0  0  0  0  0  0  0
   17.7371   25.7691   35.2374 C   0  0  0  0  0  0  0  0  0  0  0  0
   18.1294   26.8396   34.3112 N   0  0  0  0  0  0  0  0  0  0  0  0
   19.5320   27.1155   34.1333 C   0  0  0  0  0  0  0  0  0  0  0  0
   19.9259   27.8257   33.1677 O   0  0  0  0  0  0  0  0  0  0  0  0
   20.5025   26.5690   35.1053 C   0  0  0  0  0  0  0  0  0  0  0  0
   21.8858   26.6756   34.8989 C   0  0  0  0  0  0  0  0  0  0  0  0
   17.1167   27.5165   33.4927 C   0  0  0  0  0  0  0  0  0  0  0  0
   16.9216   26.7812   32.1716 C   0  0  0  0  0  0  0  0  0  0  0  0
   24.7723   26.1884   36.5634 H   0  0  0  0  0  0  0  0  0  0  0  0
   30.0500   29.4789   35.4574 H   0  0  0  0  0  0  0  0  0  0  0  0
   31.6575   29.3889   33.5759 H   0  0  0  0  0  0  0  0  0  0  0  0
   31.0739   28.0595   31.5517 H   0  0  0  0  0  0  0  0  0  0  0  0
   28.8953   26.9543   31.3856 H   0  0  0  0  0  0  0  0  0  0  0  0
   26.6261   26.6232   31.2536 H   0  0  0  0  0  0  0  0  0  0  0  0
   26.3234   25.2205   32.3143 H   0  0  0  0  0  0  0  0  0  0  0  0
   20.5962   24.9787   38.1153 H   0  0  0  0  0  0  0  0  0  0  0  0
   18.3007   24.9829   37.1740 H   0  0  0  0  0  0  0  0  0  0  0  0
   18.2374   26.7822   37.0921 H   0  0  0  0  0  0  0  0  0  0  0  0
   17.9364   24.7859   34.7576 H   0  0  0  0  0  0  0  0  0  0  0  0
   16.6518   25.8213   35.4717 H   0  0  0  0  0  0  0  0  0  0  0  0
   22.2650   27.1873   34.0238 H   0  0  0  0  0  0  0  0  0  0  0  0
   16.1465   27.5571   34.0335 H   0  0  0  0  0  0  0  0  0  0  0  0
   17.4221   28.5672   33.2961 H   0  0  0  0  0  0  0  0  0  0  0  0
   16.5918   25.7376   32.3615 H   0  0  0  0  0  0  0  0  0  0  0  0
   17.8708   26.7644   31.5959 H   0  0  0  0  0  0  0  0  0  0  0  0
   16.1462   27.2978   31.5676 H   0  0  0  0  0  0  0  0  0  0  0  0
  1  2  1  0
  2  3  2  0
  2  4  1  0
  4  5  2  0
  5  6  1  0
  6  7  2  0
  7  8  1  0
  8  9  2  0
  9 10  1  0
 10 11  2  0
 11 12  1  0
 12 13  2  0
 13 14  1  0
  1 15  1  0
 15 16  2  0
 16 17  1  0
 17 18  2  0
 18 19  1  0
 19 20  1  0
 20 21  1  0
 21 22  1  0
 22 23  2  0
 22 24  1  0
 24 25  2  0
 21 26  1  0
 26 27  1  0
 13  4  1  0
 25 15  1  0
 12  7  1  0
 24 18  1  0
  1 28  1  0
  8 29  1  0
  9 30  1  0
 10 31  1  0
 11 32  1  0
 14 33  1  0
 14 34  1  0
 17 35  1  0
 19 36  1  0
 19 37  1  0
 20 38  1  0
 20 39  1  0
 25 40  1  0
 26 41  1  0
 26 42  1  0
 27 43  1  0
 27 44  1  0
 27 45  1  0
M  END
$$$$
confid_2
     RDKit          3D

 45 48  0  0  0  0  0  0  0  0999 V2000
   24.2000   26.2400   35.6900 N   0  0  0  0  0  0  0  0  0  0  0  0
   24.8500   26.2800   34.4800 C   0  0  0  0  0  0  0  0  0  0  0  0
   24.3100   25.7400   33.5400 O   0  0  0  0  0  0  0  0  0  0  0  0
   26.1800   26.9700   34.4700 C   0  0  0  0  0  0  0  0  0  0  0  0
   26.6500   27.6000   35.5500 N   0  0  0  0  0  0  0  0  0  0  0  0
   27.7900   28.2700   35.6200 N   0  0  0  0  0  0  0  0  0  0  0  0
   28.5400   28.3000   34.5100 C   0  0  0  0  0  0  0  0  0  0  0  0
   29.7700   28.9400   34.5600 C   0  0  0  0  0  0  0  0  0  0  0  0
   30.7000   28.8900   33.5000 C   0  0  0  0  0  0  0  0  0  0  0  0
   30.3700   28.1400   32.3700 C   0  0  0  0  0  0  0  0  0  0  0  0
   29.1200   27.5200   32.2800 C   0  0  0  0  0  0  0  0  0  0  0  0
   28.2100   27.6100   33.3300 C   0  0  0  0  0  0  0  0  0  0  0  0
   26.9700   26.9700   33.3100 C   0  0  0  0  0  0  0  0  0  0  0  0
   26.5300   26.2400   32.2200 N   0  0  0  0  0  0  0  0  0  0  0  0
   22.7730   26.1416   35.8470 C   0  0  0  0  0  0  0  0  0  0  0  0
   22.2726   25.5666   36.9742 N   0  0  0  0  0  0  0  0  0  0  0  0
   20.9376   25.4585   37.2026 C   0  0  0  0  0  0  0  0  0  0  0  0
   20.0199   25.9449   36.2635 C   0  0  0  0  0  0  0  0  0  0  0  0
   18.5378   25.8899   36.5445 C   0  0  0  0  0  0  0  0  0  0  0  0
   17.7327   25.7937   35.2434 C   0  0  0  0  0  0  0  0  0  0  0  0
   18.1307   26.8572   34.3118 N   0  0  0  0  0  0  0  0  0  0  0  0
   19.5344   27.1258   34.1317 C   0  0  0  0  0  0  0  0  0  0  0  0
   19.9304   27.8289   33.1618 O   0  0  0  0  0  0  0  0  0  0  0  0
   20.5034   26.5791   35.1048 C   0  0  0  0  0  0  0  0  0  0  0  0
   21.8871   26.6810   34.8980 C   0  0  0  0  0  0  0  0  0  0  0  0
   17.1178   27.5871   33.5396 C   0  0  0  0  0  0  0  0  0  0  0  0
   16.9481   28.9998   34.0872 C   0  0  0  0  0  0  0  0  0  0  0  0
   24.7723   26.1875   36.5634 H   0  0  0  0  0  0  0  0  0  0  0  0
   30.0498   29.4792   35.4573 H   0  0  0  0  0  0  0  0  0  0  0  0
   31.6569   29.3901   33.5753 H   0  0  0  0  0  0  0  0  0  0  0  0
   31.0715   28.0646   31.5492 H   0  0  0  0  0  0  0  0  0  0  0  0
   28.8856   26.9764   31.3746 H   0  0  0  0  0  0  0  0  0  0  0  0
   27.1524   25.5360   31.7653 H   0  0  0  0  0  0  0  0  0  0  0  0
   25.6749   26.5392   31.7006 H   0  0  0  0  0  0  0  0  0  0  0  0
   20.5928   24.9980   38.1194 H   0  0  0  0  0  0  0  0  0  0  0  0
   18.2963   25.0111   37.1813 H   0  0  0  0  0  0  0  0  0  0  0  0
   18.2426   26.8105   37.0925 H   0  0  0  0  0  0  0  0  0  0  0  0
   17.9213   24.8067   34.7675 H   0  0  0  0  0  0  0  0  0  0  0  0
   16.6495   25.8598   35.4845 H   0  0  0  0  0  0  0  0  0  0  0  0
   22.2676   27.1893   34.0215 H   0  0  0  0  0  0  0  0  0  0  0  0
   17.4125   27.6288   32.4687 H   0  0  0  0  0  0  0  0  0  0  0  0
   16.1371   27.0656   33.5875 H   0  0  0  0  0  0  0  0  0  0  0  0
   16.1601   29.5306   33.5128 H   0  0  0  0  0  0  0  0  0  0  0  0
   16.6479   28.9588   35.1558 H   0  0  0  0  0  0  0  0  0  0  0  0
   17.8982   29.5670   33.9969 H   0  0  0  0  0  0  0  0  0  0  0  0
  1  2  1  0
  2  3  2  0
  2  4  1  0
  4  5  2  0
  5  6  1  0
  6  7  2  0
  7  8  1  0
  8  9  2  0
  9 10  1  0
 10 11  2  0
 11 12  1  0
 12 13  2  0
 13 14  1  0
  1 15  1  0
 15 16  2  0
 16 17  1  0
 17 18  2  0
 18 19  1  0
 19 20  1  0
 20 21  1  0
 21 22  1  0
 22 23  2  0
 22 24  1  0
 24 25  2  0
 21 26  1  0
 26 27  1  0
 13  4  1  0
 25 15  1  0
 12  7  1  0
 24 18  1  0
  1 28  1  0
  8 29  1  0
  9 30  1  0
 10 31  1  0
 11 32  1  0
 14 33  1  0
 14 34  1  0
 17 35  1  0
 19 36  1  0
 19 37  1  0
 20 38  1  0
 20 39  1  0
 25 40  1  0
 26 41  1  0
 26 42  1  0
 27 43  1  0
 27 44  1  0
 27 45  1  0
M  END
$$$$
confid_3
     RDKit          3D

 45 48  0  0  0  0  0  0  0  0999 V2000
   24.2000   26.2400   35.6900 N   0  0  0  0  0  0  0  0  0  0  0  0
   24.8500   26.2800   34.4800 C   0  0  0  0  0  0  0  0  0  0  0  0
   24.3100   25.7400   33.5400 O   0  0  0  0  0  0  0  0  0  0  0  0
   26.1800   26.9700   34.4700 C   0  0  0  0  0  0  0  0  0  0  0  0
   26.6500   27.6000   35.5500 N   0  0  0  0  0  0  0  0  0  0  0  0
   27.7900   28.2700   35.6200 N   0  0  0  0  0  0  0  0  0  0  0  0
   28.5400   28.3000   34.5100 C   0  0  0  0  0  0  0  0  0  0  0  0
   29.7700   28.9400   34.5600 C   0  0  0  0  0  0  0  0  0  0  0  0
   30.7000   28.8900   33.5000 C   0  0  0  0  0  0  0  0  0  0  0  0
   30.3700   28.1400   32.3700 C   0  0  0  0  0  0  0  0  0  0  0  0
   29.1200   27.5200   32.2800 C   0  0  0  0  0  0  0  0  0  0  0  0
   28.2100   27.6100   33.3300 C   0  0  0  0  0  0  0  0  0  0  0  0
   26.9700   26.9700   33.3100 C   0  0  0  0  0  0  0  0  0  0  0  0
   26.5300   26.2400   32.2200 N   0  0  0  0  0  0  0  0  0  0  0  0
   23.2880   25.2020   36.0917 C   0  0  0  0  0  0  0  0  0  0  0  0
   22.3106   25.4958   36.9917 N   0  0  0  0  0  0  0  0  0  0  0  0
   21.4288   24.5625   37.4359 C   0  0  0  0  0  0  0  0  0  0  0  0
   21.5019   23.2444   36.9691 C   0  0  0  0  0  0  0  0  0  0  0  0
   20.5701   22.1888   37.5131 C   0  0  0  0  0  0  0  0  0  0  0  0
   20.3167   21.0885   36.4761 C   0  0  0  0  0  0  0  0  0  0  0  0
   21.5882   20.5636   35.9613 N   0  0  0  0  0  0  0  0  0  0  0  0
   22.6244   21.4979   35.6035 C   0  0  0  0  0  0  0  0  0  0  0  0
   23.6117   21.1224   34.9135 O   0  0  0  0  0  0  0  0  0  0  0  0
   22.5235   22.8980   36.0664 C   0  0  0  0  0  0  0  0  0  0  0  0
   23.4229   23.8815   35.6287 C   0  0  0  0  0  0  0  0  0  0  0  0
   21.7734   19.1206   35.7663 C   0  0  0  0  0  0  0  0  0  0  0  0
   22.7003   18.5544   36.8361 C   0  0  0  0  0  0  0  0  0  0  0  0
   24.2964   27.0551   36.3374 H   0  0  0  0  0  0  0  0  0  0  0  0
   30.0500   29.4789   35.4574 H   0  0  0  0  0  0  0  0  0  0  0  0
   31.6575   29.3889   33.5759 H   0  0  0  0  0  0  0  0  0  0  0  0
   31.0739   28.0595   31.5517 H   0  0  0  0  0  0  0  0  0  0  0  0
   28.8953   26.9542   31.3856 H   0  0  0  0  0  0  0  0  0  0  0  0
   26.6268   26.6227   31.2535 H   0  0  0  0  0  0  0  0  0  0  0  0
   26.3228   25.2206   32.3145 H   0  0  0  0  0  0  0  0  0  0  0  0
   20.6745   24.8480   38.1578 H   0  0  0  0  0  0  0  0  0  0  0  0
   21.0281   21.7403   38.4209 H   0  0  0  0  0  0  0  0  0  0  0  0
   19.5963   22.6420   37.8003 H   0  0  0  0  0  0  0  0  0  0  0  0
   19.7302   21.5094   35.6306 H   0  0  0  0  0  0  0  0  0  0  0  0
   19.7137   20.2818   36.9469 H   0  0  0  0  0  0  0  0  0  0  0  0
   24.2271   23.6180   34.9539 H   0  0  0  0  0  0  0  0  0  0  0  0
   20.7985   18.5891   35.8214 H   0  0  0  0  0  0  0  0  0  0  0  0
   22.1952   18.9238   34.7571 H   0  0  0  0  0  0  0  0  0  0  0  0
   22.2771   18.7467   37.8449 H   0  0  0  0  0  0  0  0  0  0  0  0
   23.7043   19.0234   36.7665 H   0  0  0  0  0  0  0  0  0  0  0  0
   22.8084   17.4585   36.6947 H   0  0  0  0  0  0  0  0  0  0  0  0
  1  2  1  0
  2  3  2  0
  2  4  1  0
  4  5  2  0
  5  6  1  0
  6  7  2  0
  7  8  1  0
  8  9  2  0
  9 10  1  0
 10 11  2  0
 11 12  1  0
 12 13  2  0
 13 14  1  0
  1 15  1  0
 15 16  2  0
 16 17  1  0
 17 18  2  0
 18 19  1  0
 19 20  1  0
 20 21  1  0
 21 22  1  0
 22 23  2  0
 22 24  1  0
 24 25  2  0
 21 26  1  0
 26 27  1  0
 13  4  1  0
 25 15  1  0
 12  7  1  0
 24 18  1  0
  1 28  1  0
  8 29  1  0
  9 30  1  0
 10 31  1  0
 11 32  1  0
 14 33  1  0
 14 34  1  0
 17 35  1  0
 19 36  1  0
 19 37  1  0
 20 38  1  0
 20 39  1  0
 25 40  1  0
 26 41  1  0
 26 42  1  0
 27 43  1  0
 27 44  1  0
 27 45  1  0
M  END
$$$$
confid_4
     RDKit          3D

 45 48  0  0  0  0  0  0  0  0999 V2000
   24.2000   26.2400   35.6900 N   0  0  0  0  0  0  0  0  0  0  0  0
   24.8500   26.2800   34.4800 C   0  0  0  0  0  0  0  0  0  0  0  0
   24.3100   25.7400   33.5400 O   0  0  0  0  0  0  0  0  0  0  0  0
   26.1800   26.9700   34.4700 C   0  0  0  0  0  0  0  0  0  0  0  0
   26.6500   27.6000   35.5500 N   0  0  0  0  0  0  0  0  0  0  0  0
   27.7900   28.2700   35.6200 N   0  0  0  0  0  0  0  0  0  0  0  0
   28.5400   28.3000   34.5100 C   0  0  0  0  0  0  0  0  0  0  0  0
   29.7700   28.9400   34.5600 C   0  0  0  0  0  0  0  0  0  0  0  0
   30.7000   28.8900   33.5000 C   0  0  0  0  0  0  0  0  0  0  0  0
   30.3700   28.1400   32.3700 C   0  0  0  0  0  0  0  0  0  0  0  0
   29.1200   27.5200   32.2800 C   0  0  0  0  0  0  0  0  0  0  0  0
   28.2100   27.6100   33.3300 C   0  0  0  0  0  0  0  0  0  0  0  0
   26.9700   26.9700   33.3100 C   0  0  0  0  0  0  0  0  0  0  0  0
   26.5300   26.2400   32.2200 N   0  0  0  0  0  0  0  0  0  0  0  0
   22.7748   26.0896   35.8419 C   0  0  0  0  0  0  0  0  0  0  0  0
   21.9447   26.1871   34.7657 N   0  0  0  0  0  0  0  0  0  0  0  0
   20.5958   26.0691   34.8778 C   0  0  0  0  0  0  0  0  0  0  0  0
   20.0085   25.8579   36.1315 C   0  0  0  0  0  0  0  0  0  0  0  0
   18.5173   25.6576   36.2535 C   0  0  0  0  0  0  0  0  0  0  0  0
   18.0054   26.1445   37.6140 C   0  0  0  0  0  0  0  0  0  0  0  0
   18.7859   25.5439   38.7038 N   0  0  0  0  0  0  0  0  0  0  0  0
   20.2208   25.5064   38.5830 C   0  0  0  0  0  0  0  0  0  0  0  0
   20.9405   25.2590   39.5894 O   0  0  0  0  0  0  0  0  0  0  0  0
   20.8388   25.7451   37.2616 C   0  0  0  0  0  0  0  0  0  0  0  0
   22.2283   25.8685   37.1138 C   0  0  0  0  0  0  0  0  0  0  0  0
   18.1215   25.1229   39.9427 C   0  0  0  0  0  0  0  0  0  0  0  0
   18.0601   26.2799   40.9334 C   0  0  0  0  0  0  0  0  0  0  0  0
   24.7648   26.3126   36.5670 H   0  0  0  0  0  0  0  0  0  0  0  0
   30.0500   29.4789   35.4574 H   0  0  0  0  0  0  0  0  0  0  0  0
   31.6575   29.3888   33.5759 H   0  0  0  0  0  0  0  0  0  0  0  0
   31.0739   28.0595   31.5517 H   0  0  0  0  0  0  0  0  0  0  0  0
   28.8953   26.9543   31.3856 H   0  0  0  0  0  0  0  0  0  0  0  0
   26.3236   25.2205   32.3142 H   0  0  0  0  0  0  0  0  0  0  0  0
   26.6263   26.6231   31.2536 H   0  0  0  0  0  0  0  0  0  0  0  0
   19.9824   26.1389   33.9888 H   0  0  0  0  0  0  0  0  0  0  0  0
   18.2907   24.5756   36.1405 H   0  0  0  0  0  0  0  0  0  0  0  0
   17.9842   26.2120   35.4505 H   0  0  0  0  0  0  0  0  0  0  0  0
   18.1035   27.2509   37.6670 H   0  0  0  0  0  0  0  0  0  0  0  0
   16.9271   25.8922   37.7094 H   0  0  0  0  0  0  0  0  0  0  0  0
   22.8808   25.7945   37.9752 H   0  0  0  0  0  0  0  0  0  0  0  0
   18.6654   24.2671   40.3982 H   0  0  0  0  0  0  0  0  0  0  0  0
   17.0891   24.7721   39.7271 H   0  0  0  0  0  0  0  0  0  0  0  0
   17.5499   25.9492   41.8624 H   0  0  0  0  0  0  0  0  0  0  0  0
   17.4923   27.1276   40.4946 H   0  0  0  0  0  0  0  0  0  0  0  0
   19.0847   26.6217   41.1906 H   0  0  0  0  0  0  0  0  0  0  0  0
  1  2  1  0
  2  3  2  0
  2  4  1  0
  4  5  2  0
  5  6  1  0
  6  7  2  0
  7  8  1  0
  8  9  2  0
  9 10  1  0
 10 11  2  0
 11 12  1  0
 12 13  2  0
 13 14  1  0
  1 15  1  0
 15 16  2  0
 16 17  1  0
 17 18  2  0
 18 19  1  0
 19 20  1  0
 20 21  1  0
 21 22  1  0
 22 23  2  0
 22 24  1  0
 24 25  2  0
 21 26  1  0
 26 27  1  0
 13  4  1  0
 25 15  1  0
 12  7  1  0
 24 18  1  0
  1 28  1  0
  8 29  1  0
  9 30  1  0
 10 31  1  0
 11 32  1  0
 14 33  1  0
 14 34  1  0
 17 35  1  0
 19 36  1  0
 19 37  1  0
 20 38  1  0
 20 39  1  0
 25 40  1  0
 26 41  1  0
 26 42  1  0
 27 43  1  0
 27 44  1  0
 27 45  1  0
M  END
$$$$
confid_5
     RDKit          3D

 45 48  0  0  0  0  0  0  0  0999 V2000
   24.2000   26.2400   35.6900 N   0  0  0  0  0  0  0  0  0  0  0  0
   24.8500   26.2800   34.4800 C   0  0  0  0  0  0  0  0  0  0  0  0
   24.3100   25.7400   33.5400 O   0  0  0  0  0  0  0  0  0  0  0  0
   26.1800   26.9700   34.4700 C   0  0  0  0  0  0  0  0  0  0  0  0
   26.6500   27.6000   35.5500 N   0  0  0  0  0  0  0  0  0  0  0  0
   27.7900   28.2700   35.6200 N   0  0  0  0  0  0  0  0  0  0  0  0
   28.5400   28.3000   34.5100 C   0  0  0  0  0  0  0  0  0  0  0  0
   29.7700   28.9400   34.5600 C   0  0  0  0  0  0  0  0  0  0  0  0
   30.7000   28.8900   33.5000 C   0  0  0  0  0  0  0  0  0  0  0  0
   30.3700   28.1400   32.3700 C   0  0  0  0  0  0  0  0  0  0  0  0
   29.1200   27.5200   32.2800 C   0  0  0  0  0  0  0  0  0  0  0  0
   28.2100   27.6100   33.3300 C   0  0  0  0  0  0  0  0  0  0  0  0
   26.9700   26.9700   33.3100 C   0  0  0  0  0  0  0  0  0  0  0  0
   26.5300   26.2400   32.2200 N   0  0  0  0  0  0  0  0  0  0  0  0
   22.7754   26.0857   35.8403 C   0  0  0  0  0  0  0  0  0  0  0  0
   21.9439   26.2149   34.7686 N   0  0  0  0  0  0  0  0  0  0  0  0
   20.5953   26.0917   34.8790 C   0  0  0  0  0  0  0  0  0  0  0  0
   20.0121   25.8159   36.1219 C   0  0  0  0  0  0  0  0  0  0  0  0
   18.5107   25.7463   36.2631 C   0  0  0  0  0  0  0  0  0  0  0  0
   18.1075   24.7991   37.3989 C   0  0  0  0  0  0  0  0  0  0  0  0
   18.8143   25.1492   38.6379 N   0  0  0  0  0  0  0  0  0  0  0  0
   20.2250   25.4317   38.5684 C   0  0  0  0  0  0  0  0  0  0  0  0
   20.9231   25.4619   39.6189 O   0  0  0  0  0  0  0  0  0  0  0  0
   20.8417   25.7006   37.2523 C   0  0  0  0  0  0  0  0  0  0  0  0
   22.2302   25.8366   37.1075 C   0  0  0  0  0  0  0  0  0  0  0  0
   18.1256   25.0565   39.9303 C   0  0  0  0  0  0  0  0  0  0  0  0
   18.2347   23.6432   40.4909 C   0  0  0  0  0  0  0  0  0  0  0  0
   24.7647   26.3098   36.5674 H   0  0  0  0  0  0  0  0  0  0  0  0
   30.0498   29.4792   35.4573 H   0  0  0  0  0  0  0  0  0  0  0  0
   31.6569   29.3901   33.5753 H   0  0  0  0  0  0  0  0  0  0  0  0
   31.0715   28.0646   31.5492 H   0  0  0  0  0  0  0  0  0  0  0  0
   28.8856   26.9764   31.3746 H   0  0  0  0  0  0  0  0  0  0  0  0
   25.6752   26.5395   31.7003 H   0  0  0  0  0  0  0  0  0  0  0  0
   27.1525   25.5361   31.7652 H   0  0  0  0  0  0  0  0  0  0  0  0
   19.9786   26.2130   33.9978 H   0  0  0  0  0  0  0  0  0  0  0  0
   18.1233   26.7653   36.4781 H   0  0  0  0  0  0  0  0  0  0  0  0
   18.0484   25.3887   35.3172 H   0  0  0  0  0  0  0  0  0  0  0  0
   17.0062   24.8483   37.5412 H   0  0  0  0  0  0  0  0  0  0  0  0
   18.3694   23.7562   37.1160 H   0  0  0  0  0  0  0  0  0  0  0  0
   22.8836   25.7446   37.9664 H   0  0  0  0  0  0  0  0  0  0  0  0
   17.0526   25.3221   39.8147 H   0  0  0  0  0  0  0  0  0  0  0  0
   18.5627   25.7803   40.6519 H   0  0  0  0  0  0  0  0  0  0  0  0
   17.7110   23.5876   41.4683 H   0  0  0  0  0  0  0  0  0  0  0  0
   17.7660   22.9189   39.7918 H   0  0  0  0  0  0  0  0  0  0  0  0
   19.3002   23.3692   40.6394 H   0  0  0  0  0  0  0  0  0  0  0  0
  1  2  1  0
  2  3  2  0
  2  4  1  0
  4  5  2  0
  5  6  1  0
  6  7  2  0
  7  8  1  0
  8  9  2  0
  9 10  1  0
 10 11  2  0
 11 12  1  0
 12 13  2  0
 13 14  1  0
  1 15  1  0
 15 16  2  0
 16 17  1  0
 17 18  2  0
 18 19  1  0
 19 20  1  0
 20 21  1  0
 21 22  1  0
 22 23  2  0
 22 24  1  0
 24 25  2  0
 21 26  1  0
 26 27  1  0
 13  4  1  0
 25 15  1  0
 12  7  1  0
 24 18  1  0
  1 28  1  0
  8 29  1  0
  9 30  1  0
 10 31  1  0
 11 32  1  0
 14 33  1  0
 14 34  1  0
 17 35  1  0
 19 36  1  0
 19 37  1  0
 20 38  1  0
 20 39  1  0
 25 40  1  0
 26 41  1  0
 26 42  1  0
 27 43  1  0
 27 44  1  0
 27 45  1  0
M  END
$$$$
confid_6
     RDKit          3D

 45 48  0  0  0  0  0  0  0  0999 V2000
   24.2000   26.2400   35.6900 N   0  0  0  0  0  0  0  0  0  0  0  0
   24.8500   26.2800   34.4800 C   0  0  0  0  0  0  0  0  0  0  0  0
   24.3100   25.7400   33.5400 O   0  0  0  0  0  0  0  0  0  0  0  0
   26.1800   26.9700   34.4700 C   0  0  0  0  0  0  0  0  0  0  0  0
   26.6500   27.6000   35.5500 N   0  0  0  0  0  0  0  0  0  0  0  0
   27.7900   28.2700   35.6200 N   0  0  0  0  0  0  0  0  0  0  0  0
   28.5400   28.3000   34.5100 C   0  0  0  0  0  0  0  0  0  0  0  0
   29.7700   28.9400   34.5600 C   0  0  0  0  0  0  0  0  0  0  0  0
   30.7000   28.8900   33.5000 C   0  0  0  0  0  0  0  0  0  0  0  0
   30.3700   28.1400   32.3700 C   0  0  0  0  0  0  0  0  0  0  0  0
   29.1200   27.5200   32.2800 C   0  0  0  0  0  0  0  0  0  0  0  0
   28.2100   27.6100   33.3300 C   0  0  0  0  0  0  0  0  0  0  0  0
   26.9700   26.9700   33.3100 C   0  0  0  0  0  0  0  0  0  0  0  0
   26.5300   26.2400   32.2200 N   0  0  0  0  0  0  0  0  0  0  0  0
   22.7742   26.0962   35.8408 C   0  0  0  0  0  0  0  0  0  0  0  0
   21.9448   26.2075   34.7653 N   0  0  0  0  0  0  0  0  0  0  0  0
   20.5953   26.0962   34.8763 C   0  0  0  0  0  0  0  0  0  0  0  0
   20.0068   25.8772   36.1281 C   0  0  0  0  0  0  0  0  0  0  0  0
   18.5148   25.6824   36.2483 C   0  0  0  0  0  0  0  0  0  0  0  0
   18.0043   26.1605   37.6125 C   0  0  0  0  0  0  0  0  0  0  0  0
   18.7820   25.5477   38.6974 N   0  0  0  0  0  0  0  0  0  0  0  0
   20.2166   25.5008   38.5755 C   0  0  0  0  0  0  0  0  0  0  0  0
   20.9343   25.2378   39.5793 O   0  0  0  0  0  0  0  0  0  0  0  0
   20.8362   25.7497   37.2570 C   0  0  0  0  0  0  0  0  0  0  0  0
   22.2263   25.8668   37.1105 C   0  0  0  0  0  0  0  0  0  0  0  0
   18.1107   25.0464   39.9028 C   0  0  0  0  0  0  0  0  0  0  0  0
   18.0932   23.5220   39.9063 C   0  0  0  0  0  0  0  0  0  0  0  0
   24.7652   26.3077   36.5672 H   0  0  0  0  0  0  0  0  0  0  0  0
   30.0498   29.4792   35.4573 H   0  0  0  0  0  0  0  0  0  0  0  0
   31.6569   29.3901   33.5753 H   0  0  0  0  0  0  0  0  0  0  0  0
   31.0715   28.0646   31.5492 H   0  0  0  0  0  0  0  0  0  0  0  0
   28.8856   26.9764   31.3746 H   0  0  0  0  0  0  0  0  0  0  0  0
   25.6751   26.5393   31.7003 H   0  0  0  0  0  0  0  0  0  0  0  0
   27.1524   25.5359   31.7654 H   0  0  0  0  0  0  0  0  0  0  0  0
   19.9823   26.1765   33.9879 H   0  0  0  0  0  0  0  0  0  0  0  0
   17.9843   26.2451   35.4496 H   0  0  0  0  0  0  0  0  0  0  0  0
   18.2838   24.6021   36.1270 H   0  0  0  0  0  0  0  0  0  0  0  0
   16.9258   25.9064   37.7026 H   0  0  0  0  0  0  0  0  0  0  0  0
   18.1051   27.2659   37.6750 H   0  0  0  0  0  0  0  0  0  0  0  0
   22.8783   25.7812   37.9712 H   0  0  0  0  0  0  0  0  0  0  0  0
   17.0631   25.4153   39.9502 H   0  0  0  0  0  0  0  0  0  0  0  0
   18.6296   25.4213   40.8114 H   0  0  0  0  0  0  0  0  0  0  0  0
   19.1291   23.1227   39.9208 H   0  0  0  0  0  0  0  0  0  0  0  0
   17.5578   23.1568   40.8078 H   0  0  0  0  0  0  0  0  0  0  0  0
   17.5703   23.1467   39.0010 H   0  0  0  0  0  0  0  0  0  0  0  0
  1  2  1  0
  2  3  2  0
  2  4  1  0
  4  5  2  0
  5  6  1  0
  6  7  2  0
  7  8  1  0
  8  9  2  0
  9 10  1  0
 10 11  2  0
 11 12  1  0
 12 13  2  0
 13 14  1  0
  1 15  1  0
 15 16  2  0
 16 17  1  0
 17 18  2  0
 18 19  1  0
 19 20  1  0
 20 21  1  0
 21 22  1  0
 22 23  2  0
 22 24  1  0
 24 25  2  0
 21 26  1  0
 26 27  1  0
 13  4  1  0
 25 15  1  0
 12  7  1  0
 24 18  1  0
  1 28  1  0
  8 29  1  0
  9 30  1  0
 10 31  1  0
 11 32  1  0
 14 33  1  0
 14 34  1  0
 17 35  1  0
 19 36  1  0
 19 37  1  0
 20 38  1  0
 20 39  1  0
 25 40  1  0
 26 41  1  0
 26 42  1  0
 27 43  1  0
 27 44  1  0
 27 45  1  0
M  END
$$$$
confid_7
     RDKit          3D

 45 48  0  0  0  0  0  0  0  0999 V2000
   24.2000   26.2400   35.6900 N   0  0  0  0  0  0  0  0  0  0  0  0
   24.8500   26.2800   34.4800 C   0  0  0  0  0  0  0  0  0  0  0  0
   24.3100   25.7400   33.5400 O   0  0  0  0  0  0  0  0  0  0  0  0
   26.1800   26.9700   34.4700 C   0  0  0  0  0  0  0  0  0  0  0  0
   26.6500   27.6000   35.5500 N   0  0  0  0  0  0  0  0  0  0  0  0
   27.7900   28.2700   35.6200 N   0  0  0  0  0  0  0  0  0  0  0  0
   28.5400   28.3000   34.5100 C   0  0  0  0  0  0  0  0  0  0  0  0
   29.7700   28.9400   34.5600 C   0  0  0  0  0  0  0  0  0  0  0  0
   30.7000   28.8900   33.5000 C   0  0  0  0  0  0  0  0  0  0  0  0
   30.3700   28.1400   32.3700 C   0  0  0  0  0  0  0  0  0  0  0  0
   29.1200   27.5200   32.2800 C   0  0  0  0  0  0  0  0  0  0  0  0
   28.2100   27.6100   33.3300 C   0  0  0  0  0  0  0  0  0  0  0  0
   26.9700   26.9700   33.3100 C   0  0  0  0  0  0  0  0  0  0  0  0
   26.5300   26.2400   32.2200 N   0  0  0  0  0  0  0  0  0  0  0  0
   23.2307   25.2393   36.0590 C   0  0  0  0  0  0  0  0  0  0  0  0
   23.0586   24.1214   35.2990 N   0  0  0  0  0  0  0  0  0  0  0  0
   22.1677   23.1503   35.6296 C   0  0  0  0  0  0  0  0  0  0  0  0
   21.3989   23.2661   36.7943 C   0  0  0  0  0  0  0  0  0  0  0  0
   20.3579   22.2260   37.1302 C   0  0  0  0  0  0  0  0  0  0  0  0
   20.1620   22.1111   38.6464 C   0  0  0  0  0  0  0  0  0  0  0  0
   19.9062   23.4326   39.2344 N   0  0  0  0  0  0  0  0  0  0  0  0
   20.7234   24.5427   38.8165 C   0  0  0  0  0  0  0  0  0  0  0  0
   20.7258   25.6178   39.4768 O   0  0  0  0  0  0  0  0  0  0  0  0
   21.5474   24.4120   37.5966 C   0  0  0  0  0  0  0  0  0  0  0  0
   22.4736   25.3988   37.2280 C   0  0  0  0  0  0  0  0  0  0  0  0
   18.8760   23.6008   40.2666 C   0  0  0  0  0  0  0  0  0  0  0  0
   17.6609   24.3206   39.6924 C   0  0  0  0  0  0  0  0  0  0  0  0
   24.4022   26.9839   36.3963 H   0  0  0  0  0  0  0  0  0  0  0  0
   30.0498   29.4792   35.4573 H   0  0  0  0  0  0  0  0  0  0  0  0
   31.6569   29.3901   33.5753 H   0  0  0  0  0  0  0  0  0  0  0  0
   31.0715   28.0646   31.5492 H   0  0  0  0  0  0  0  0  0  0  0  0
   28.8856   26.9764   31.3746 H   0  0  0  0  0  0  0  0  0  0  0  0
   25.6752   26.5394   31.7002 H   0  0  0  0  0  0  0  0  0  0  0  0
   27.1523   25.5356   31.7657 H   0  0  0  0  0  0  0  0  0  0  0  0
   22.0582   22.2896   34.9826 H   0  0  0  0  0  0  0  0  0  0  0  0
   19.3957   22.5162   36.6558 H   0  0  0  0  0  0  0  0  0  0  0  0
   20.6587   21.2327   36.7312 H   0  0  0  0  0  0  0  0  0  0  0  0
   19.3193   21.4149   38.8487 H   0  0  0  0  0  0  0  0  0  0  0  0
   21.0808   21.6836   39.1035 H   0  0  0  0  0  0  0  0  0  0  0  0
   22.6072   26.2824   37.8402 H   0  0  0  0  0  0  0  0  0  0  0  0
   18.5520   22.6135   40.6617 H   0  0  0  0  0  0  0  0  0  0  0  0
   19.2867   24.1762   41.1242 H   0  0  0  0  0  0  0  0  0  0  0  0
   17.2469   23.7435   38.8384 H   0  0  0  0  0  0  0  0  0  0  0  0
   17.9414   25.3368   39.3439 H   0  0  0  0  0  0  0  0  0  0  0  0
   16.8789   24.4154   40.4748 H   0  0  0  0  0  0  0  0  0  0  0  0
  1  2  1  0
  2  3  2  0
  2  4  1  0
  4  5  2  0
  5  6  1  0
  6  7  2  0
  7  8  1  0
  8  9  2  0
  9 10  1  0
 10 11  2  0
 11 12  1  0
 12 13  2  0
 13 14  1  0
  1 15  1  0
 15 16  2  0
 16 17  1  0
 17 18  2  0
 18 19  1  0
 19 20  1  0
 20 21  1  0
 21 22  1  0
 22 23  2  0
 22 24  1  0
 24 25  2  0
 21 26  1  0
 26 27  1  0
 13  4  1  0
 25 15  1  0
 12  7  1  0
 24 18  1  0
  1 28  1  0
  8 29  1  0
  9 30  1  0
 10 31  1  0
 11 32  1  0
 14 33  1  0
 14 34  1  0
 17 35  1  0
 19 36  1  0
 19 37  1  0
 20 38  1  0
 20 39  1  0
 25 40  1  0
 26 41  1  0
 26 42  1  0
 27 43  1  0
 27 44  1  0
 27 45  1  0
M  END
$$$$
