confid_0
     RDKit          3D

 41 44  0  0  0  0  0  0  0  0999 V2000
   24.4800   26.1000   36.1300 N   0  0  0  0  0  0  0  0  0  0  0  0
   25.2500   26.2500   34.9900 C   0  0  0  0  0  0  0  0  0  0  0  0
   24.7400   25.7600   33.9900 O   0  0  0  0  0  0  0  0  0  0  0  0
   26.5900   26.8900   34.9600 C   0  0  0  0  0  0  0  0  0  0  0  0
   27.0600   27.2400   36.1600 N   0  0  0  0  0  0  0  0  0  0  0  0
   28.3000   27.7100   36.2400 N   0  0  0  0  0  0  0  0  0  0  0  0
   29.0500   27.9600   35.1500 C   0  0  0  0  0  0  0  0  0  0  0  0
   30.3400   28.4900   35.2600 C   0  0  0  0  0  0  0  0  0  0  0  0
   31.1100   28.8200   34.1400 C   0  0  0  0  0  0  0  0  0  0  0  0
   30.5200   28.6700   32.8800 C   0  0  0  0  0  0  0  0  0  0  0  0
   29.2900   28.0200   32.7700 C   0  0  0  0  0  0  0  0  0  0  0  0
   28.5200   27.7100   33.8900 C   0  0  0  0  0  0  0  0  0  0  0  0
   27.2700   27.0800   33.7600 C   0  0  0  0  0  0  0  0  0  0  0  0
   26.7500   26.8800   32.4900 N   0  0  0  0  0  0  0  0  0  0  0  0
   23.5259   25.0448   36.3507 C   0  0  0  0  0  0  0  0  0  0  0  0
   23.4724   23.8185   35.7031 C   0  0  0  0  0  0  0  0  0  0  0  0
   22.4544   23.1189   36.3248 C   0  0  0  0  0  0  0  0  0  0  0  0
   22.0657   21.7005   36.0562 C   0  0  0  0  0  0  0  0  0  0  0  0
   20.7391   21.3967   36.6148 N   0  0  0  0  0  0  0  0  0  0  0  0
   20.1737   22.1765   37.6928 C   0  0  0  0  0  0  0  0  0  0  0  0
   19.0704   21.8426   38.2042 O   0  0  0  0  0  0  0  0  0  0  0  0
   20.8937   23.3746   38.2484 C   0  0  0  0  0  0  0  0  0  0  0  0
   21.9080   23.8505   37.3123 N   0  0  0  0  0  0  0  0  0  0  0  0
   22.5668   25.0257   37.3476 C   0  0  0  0  0  0  0  0  0  0  0  0
   22.2702   26.3017   38.5197 Cl  0  0  0  0  0  0  0  0  0  0  0  0
   20.0372   20.1962   36.1552 C   0  0  0  0  0  0  0  0  0  0  0  0
   24.6101   26.7963   36.8976 H   0  0  0  0  0  0  0  0  0  0  0  0
   30.7580   28.6629   36.2441 H   0  0  0  0  0  0  0  0  0  0  0  0
   32.0983   29.2479   34.2470 H   0  0  0  0  0  0  0  0  0  0  0  0
   31.0669   28.9543   31.9901 H   0  0  0  0  0  0  0  0  0  0  0  0
   28.9258   27.8587   31.7656 H   0  0  0  0  0  0  0  0  0  0  0  0
   27.2968   26.3786   31.7554 H   0  0  0  0  0  0  0  0  0  0  0  0
   25.7672   27.1502   32.2658 H   0  0  0  0  0  0  0  0  0  0  0  0
   24.1206   23.4533   34.9178 H   0  0  0  0  0  0  0  0  0  0  0  0
   22.0586   21.5367   34.9566 H   0  0  0  0  0  0  0  0  0  0  0  0
   22.8192   21.0255   36.5143 H   0  0  0  0  0  0  0  0  0  0  0  0
   21.3814   23.0929   39.2054 H   0  0  0  0  0  0  0  0  0  0  0  0
   20.1585   24.1849   38.4436 H   0  0  0  0  0  0  0  0  0  0  0  0
   20.6191   19.6638   35.3725 H   0  0  0  0  0  0  0  0  0  0  0  0
   19.8834   19.5003   37.0070 H   0  0  0  0  0  0  0  0  0  0  0  0
   19.0517   20.4796   35.7292 H   0  0  0  0  0  0  0  0  0  0  0  0
  1  2  1  0
  2  3  2  0
  2  4  1  0
  4  5  2  0
  5  6  1  0
  6  7  2  0
  7  8  1  0
  8  9  2  0
  9 10  1  0
 10 11  2  0
 11 12  1  0
 12 13  2  0
 13 14  1  0
  1 15  1  0
 15 16  1  0
 16 17  2  0
 17 18  1  0
 18 19  1  0
 19 20  1  0
 20 21  2  0
 20 22  1  0
 22 23  1  0
 23 24  1  0
 24 25  1  0
 19 26  1  0
 13  4  1  0
 24 15  2  0
 12  7  1  0
 23 17  1  0
  1 27  1  0
  8 28  1  0
  9 29  1  0
 10 30  1  0
 11 31  1  0
 14 32  1  0
 14 33  1  0
 16 34  1  0
 18 35  1  0
 18 36  1  0
 22 37  1  0
 22 38  1  0
 26 39  1  0
 26 40  1  0
 26 41  1  0
M  END
$$$$
confid_1
     RDKit          3D

 41 44  0  0  0  0  0  0  0  0999 V2000
   24.4800   26.1000   36.1300 N   0  0  0  0  0  0  0  0  0  0  0  0
   25.2500   26.2500   34.9900 C   0  0  0  0  0  0  0  0  0  0  0  0
   24.7400   25.7600   33.9900 O   0  0  0  0  0  0  0  0  0  0  0  0
   26.5900   26.8900   34.9600 C   0  0  0  0  0  0  0  0  0  0  0  0
   27.0600   27.2400   36.1600 N   0  0  0  0  0  0  0  0  0  0  0  0
   28.3000   27.7100   36.2400 N   0  0  0  0  0  0  0  0  0  0  0  0
   29.0500   27.9600   35.1500 C   0  0  0  0  0  0  0  0  0  0  0  0
   30.3400   28.4900   35.2600 C   0  0  0  0  0  0  0  0  0  0  0  0
   31.1100   28.8200   34.1400 C   0  0  0  0  0  0  0  0  0  0  0  0
   30.5200   28.6700   32.8800 C   0  0  0  0  0  0  0  0  0  0  0  0
   29.2900   28.0200   32.7700 C   0  0  0  0  0  0  0  0  0  0  0  0
   28.5200   27.7100   33.8900 C   0  0  0  0  0  0  0  0  0  0  0  0
   27.2700   27.0800   33.7600 C   0  0  0  0  0  0  0  0  0  0  0  0
   26.7500   26.8800   32.4900 N   0  0  0  0  0  0  0  0  0  0  0  0
   23.5428   25.0322   36.3619 C   0  0  0  0  0  0  0  0  0  0  0  0
   23.4818   23.8123   35.7028 C   0  0  0  0  0  0  0  0  0  0  0  0
   22.4530   23.1174   36.3121 C   0  0  0  0  0  0  0  0  0  0  0  0
   21.9374   21.7721   35.9127 C   0  0  0  0  0  0  0  0  0  0  0  0
   21.1306   21.1684   36.9846 N   0  0  0  0  0  0  0  0  0  0  0  0
   20.5210   21.9708   38.0212 C   0  0  0  0  0  0  0  0  0  0  0  0
   19.7701   21.4315   38.8789 O   0  0  0  0  0  0  0  0  0  0  0  0
   20.7381   23.4577   38.0863 C   0  0  0  0  0  0  0  0  0  0  0  0
   21.9036   23.8479   37.2987 N   0  0  0  0  0  0  0  0  0  0  0  0
   22.5636   25.0223   37.3389 C   0  0  0  0  0  0  0  0  0  0  0  0
   22.1922   26.3402   38.4410 Cl  0  0  0  0  0  0  0  0  0  0  0  0
   20.8335   19.7357   36.9216 C   0  0  0  0  0  0  0  0  0  0  0  0
   24.6026   26.8027   36.8931 H   0  0  0  0  0  0  0  0  0  0  0  0
   30.7580   28.6629   36.2441 H   0  0  0  0  0  0  0  0  0  0  0  0
   32.0983   29.2479   34.2470 H   0  0  0  0  0  0  0  0  0  0  0  0
   31.0669   28.9543   31.9901 H   0  0  0  0  0  0  0  0  0  0  0  0
   28.9258   27.8587   31.7656 H   0  0  0  0  0  0  0  0  0  0  0  0
   27.2968   26.3786   31.7554 H   0  0  0  0  0  0  0  0  0  0  0  0
   25.7672   27.1502   32.2658 H   0  0  0  0  0  0  0  0  0  0  0  0
   24.1054   23.4621   34.8913 H   0  0  0  0  0  0  0  0  0  0  0  0
   22.8033   21.1155   35.6783 H   0  0  0  0  0  0  0  0  0  0  0  0
   21.3130   21.8803   35.0009 H   0  0  0  0  0  0  0  0  0  0  0  0
   19.8384   23.9735   37.6893 H   0  0  0  0  0  0  0  0  0  0  0  0
   20.8871   23.7582   39.1459 H   0  0  0  0  0  0  0  0  0  0  0  0
   21.3167   19.2622   36.0400 H   0  0  0  0  0  0  0  0  0  0  0  0
   21.2088   19.2355   37.8391 H   0  0  0  0  0  0  0  0  0  0  0  0
   19.7366   19.5814   36.8409 H   0  0  0  0  0  0  0  0  0  0  0  0
  1  2  1  0
  2  3  2  0
  2  4  1  0
  4  5  2  0
  5  6  1  0
  6  7  2  0
  7  8  1  0
  8  9  2  0
  9 10  1  0
 10 11  2  0
 11 12  1  0
 12 13  2  0
 13 14  1  0
  1 15  1  0
 15 16  1  0
 16 17  2  0
 17 18  1  0
 18 19  1  0
 19 20  1  0
 20 21  2  0
 20 22  1  0
 22 23  1  0
 23 24  1  0
 24 25  1  0
 19 26  1  0
 13  4  1  0
 24 15  2  0
 12  7  1  0
 23 17  1  0
  1 27  1  0
  8 28  1  0
  9 29  1  0
 10 30  1  0
 11 31  1  0
 14 32  1  0
 14 33  1  0
 16 34  1  0
 18 35  1  0
 18 36  1  0
 22 37  1  0
 22 38  1  0
 26 39  1  0
 26 40  1  0
 26 41  1  0
M  END
$$$$
confid_2
     RDKit          3D

 41 44  0  0  0  0  0  0  0  0999 V2000
   24.4800   26.1000   36.1300 N   0  0  0  0  0  0  0  0  0  0  0  0
   25.2500   26.2500   34.9900 C   0  0  0  0  0  0  0  0  0  0  0  0
   24.7400   25.7600   33.9900 O   0  0  0  0  0  0  0  0  0  0  0  0
   26.5900   26.8900   34.9600 C   0  0  0  0  0  0  0  0  0  0  0  0
   27.0600   27.2400   36.1600 N   0  0  0  0  0  0  0  0  0  0  0  0
   28.3000   27.7100   36.2400 N   0  0  0  0  0  0  0  0  0  0  0  0
   29.0500   27.9600   35.1500 C   0  0  0  0  0  0  0  0  0  0  0  0
   30.3400   28.4900   35.2600 C   0  0  0  0  0  0  0  0  0  0  0  0
   31.1100   28.8200   34.1400 C   0  0  0  0  0  0  0  0  0  0  0  0
   30.5200   28.6700   32.8800 C   0  0  0  0  0  0  0  0  0  0  0  0
   29.2900   28.0200   32.7700 C   0  0  0  0  0  0  0  0  0  0  0  0
   28.5200   27.7100   33.8900 C   0  0  0  0  0  0  0  0  0  0  0  0
   27.2700   27.0800   33.7600 C   0  0  0  0  0  0  0  0  0  0  0  0
   26.7500   26.8800   32.4900 N   0  0  0  0  0  0  0  0  0  0  0  0
   23.0420   26.0414   36.1486 C   0  0  0  0  0  0  0  0  0  0  0  0
   22.1742   26.4373   35.1404 C   0  0  0  0  0  0  0  0  0  0  0  0
   20.9044   26.2289   35.6468 C   0  0  0  0  0  0  0  0  0  0  0  0
   19.6170   26.4300   34.9139 C   0  0  0  0  0  0  0  0  0  0  0  0
   18.4776   26.4970   35.8422 N   0  0  0  0  0  0  0  0  0  0  0  0
   18.5481   25.9390   37.1739 C   0  0  0  0  0  0  0  0  0  0  0  0
   17.5283   25.9423   37.9158 O   0  0  0  0  0  0  0  0  0  0  0  0
   19.8158   25.3188   37.6940 C   0  0  0  0  0  0  0  0  0  0  0  0
   20.9649   25.7394   36.8980 N   0  0  0  0  0  0  0  0  0  0  0  0
   22.2693   25.6206   37.2160 C   0  0  0  0  0  0  0  0  0  0  0  0
   22.8725   24.9853   38.7399 Cl  0  0  0  0  0  0  0  0  0  0  0  0
   17.2019   27.0267   35.3554 C   0  0  0  0  0  0  0  0  0  0  0  0
   24.9713   26.0556   37.0506 H   0  0  0  0  0  0  0  0  0  0  0  0
   30.7582   28.6623   36.2441 H   0  0  0  0  0  0  0  0  0  0  0  0
   32.0994   29.2455   34.2469 H   0  0  0  0  0  0  0  0  0  0  0  0
   31.0715   28.9442   31.9898 H   0  0  0  0  0  0  0  0  0  0  0  0
   28.9437   27.8129   31.7669 H   0  0  0  0  0  0  0  0  0  0  0  0
   26.3613   25.9530   32.2111 H   0  0  0  0  0  0  0  0  0  0  0  0
   26.7154   27.6567   31.7927 H   0  0  0  0  0  0  0  0  0  0  0  0
   22.4238   26.8337   34.1653 H   0  0  0  0  0  0  0  0  0  0  0  0
   19.4661   25.5850   34.2093 H   0  0  0  0  0  0  0  0  0  0  0  0
   19.6839   27.3746   34.3316 H   0  0  0  0  0  0  0  0  0  0  0  0
   19.9639   25.6247   38.7522 H   0  0  0  0  0  0  0  0  0  0  0  0
   19.7238   24.2130   37.6489 H   0  0  0  0  0  0  0  0  0  0  0  0
   16.8963   27.8950   35.9764 H   0  0  0  0  0  0  0  0  0  0  0  0
   17.2809   27.3604   34.2984 H   0  0  0  0  0  0  0  0  0  0  0  0
   16.4204   26.2397   35.4133 H   0  0  0  0  0  0  0  0  0  0  0  0
  1  2  1  0
  2  3  2  0
  2  4  1  0
  4  5  2  0
  5  6  1  0
  6  7  2  0
  7  8  1  0
  8  9  2  0
  9 10  1  0
 10 11  2  0
 11 12  1  0
 12 13  2  0
 13 14  1  0
  1 15  1  0
 15 16  1  0
 16 17  2  0
 17 18  1  0
 18 19  1  0
 19 20  1  0
 20 21  2  0
 20 22  1  0
 22 23  1  0
 23 24  1  0
 24 25  1  0
 19 26  1  0
 13  4  1  0
 24 15  2  0
 12  7  1  0
 23 17  1  0
  1 27  1  0
  8 28  1  0
  9 29  1  0
 10 30  1  0
 11 31  1  0
 14 32  1  0
 14 33  1  0
 16 34  1  0
 18 35  1  0
 18 36  1  0
 22 37  1  0
 22 38  1  0
 26 39  1  0
 26 40  1  0
 26 41  1  0
M  END
$$$$
confid_3
     RDKit          3D

 41 44  0  0  0  0  0  0  0  0999 V2000
   24.4800   26.1000   36.1300 N   0  0  0  0  0  0  0  0  0  0  0  0
   25.2500   26.2500   34.9900 C   0  0  0  0  0  0  0  0  0  0  0  0
   24.7400   25.7600   33.9900 O   0  0  0  0  0  0  0  0  0  0  0  0
   26.5900   26.8900   34.9600 C   0  0  0  0  0  0  0  0  0  0  0  0
   27.0600   27.2400   36.1600 N   0  0  0  0  0  0  0  0  0  0  0  0
   28.3000   27.7100   36.2400 N   0  0  0  0  0  0  0  0  0  0  0  0
   29.0500   27.9600   35.1500 C   0  0  0  0  0  0  0  0  0  0  0  0
   30.3400   28.4900   35.2600 C   0  0  0  0  0  0  0  0  0  0  0  0
   31.1100   28.8200   34.1400 C   0  0  0  0  0  0  0  0  0  0  0  0
   30.5200   28.6700   32.8800 C   0  0  0  0  0  0  0  0  0  0  0  0
   29.2900   28.0200   32.7700 C   0  0  0  0  0  0  0  0  0  0  0  0
   28.5200   27.7100   33.8900 C   0  0  0  0  0  0  0  0  0  0  0  0
   27.2700   27.0800   33.7600 C   0  0  0  0  0  0  0  0  0  0  0  0
   26.7500   26.8800   32.4900 N   0  0  0  0  0  0  0  0  0  0  0  0
   23.0430   26.0179   36.1450 C   0  0  0  0  0  0  0  0  0  0  0  0
   22.1732   26.4271   35.1440 C   0  0  0  0  0  0  0  0  0  0  0  0
   20.9043   26.2341   35.6585 C   0  0  0  0  0  0  0  0  0  0  0  0
   19.6173   26.6167   35.0010 C   0  0  0  0  0  0  0  0  0  0  0  0
   18.4730   25.9492   35.6408 N   0  0  0  0  0  0  0  0  0  0  0  0
   18.5464   25.4514   36.9960 C   0  0  0  0  0  0  0  0  0  0  0  0
   17.5245   24.9561   37.5444 O   0  0  0  0  0  0  0  0  0  0  0  0
   19.8208   25.5390   37.7902 C   0  0  0  0  0  0  0  0  0  0  0  0
   20.9673   25.7465   36.9104 N   0  0  0  0  0  0  0  0  0  0  0  0
   22.2722   25.6245   37.2245 C   0  0  0  0  0  0  0  0  0  0  0  0
   22.8777   25.0933   38.7868 Cl  0  0  0  0  0  0  0  0  0  0  0  0
   17.1921   25.9087   34.9318 C   0  0  0  0  0  0  0  0  0  0  0  0
   24.9702   26.0668   37.0516 H   0  0  0  0  0  0  0  0  0  0  0  0
   30.7582   28.6623   36.2441 H   0  0  0  0  0  0  0  0  0  0  0  0
   32.0994   29.2455   34.2469 H   0  0  0  0  0  0  0  0  0  0  0  0
   31.0715   28.9442   31.9898 H   0  0  0  0  0  0  0  0  0  0  0  0
   28.9437   27.8129   31.7669 H   0  0  0  0  0  0  0  0  0  0  0  0
   26.7154   27.6567   31.7927 H   0  0  0  0  0  0  0  0  0  0  0  0
   26.3613   25.9530   32.2111 H   0  0  0  0  0  0  0  0  0  0  0  0
   22.4222   26.8593   34.1840 H   0  0  0  0  0  0  0  0  0  0  0  0
   19.6686   26.3314   33.9277 H   0  0  0  0  0  0  0  0  0  0  0  0
   19.4867   27.7171   35.0736 H   0  0  0  0  0  0  0  0  0  0  0  0
   19.9588   24.5979   38.3651 H   0  0  0  0  0  0  0  0  0  0  0  0
   19.7466   26.3880   38.5022 H   0  0  0  0  0  0  0  0  0  0  0  0
   16.4210   26.4548   35.5154 H   0  0  0  0  0  0  0  0  0  0  0  0
   16.8728   24.8538   34.7970 H   0  0  0  0  0  0  0  0  0  0  0  0
   17.2706   26.3835   33.9303 H   0  0  0  0  0  0  0  0  0  0  0  0
  1  2  1  0
  2  3  2  0
  2  4  1  0
  4  5  2  0
  5  6  1  0
  6  7  2  0
  7  8  1  0
  8  9  2  0
  9 10  1  0
 10 11  2  0
 11 12  1  0
 12 13  2  0
 13 14  1  0
  1 15  1  0
 15 16  1  0
 16 17  2  0
 17 18  1  0
 18 19  1  0
 19 20  1  0
 20 21  2  0
 20 22  1  0
 22 23  1  0
 23 24  1  0
 24 25  1  0
 19 26  1  0
 13  4  1  0
 24 15  2  0
 12  7  1  0
 23 17  1  0
  1 27  1  0
  8 28  1  0
  9 29  1  0
 10 30  1  0
 11 31  1  0
 14 32  1  0
 14 33  1  0
 16 34  1  0
 18 35  1  0
 18 36  1  0
 22 37  1  0
 22 38  1  0
 26 39  1  0
 26 40  1  0
 26 41  1  0
M  END
$$$$
