confid_0
     RDKit          3D

 46 50  0  0  0  0  0  0  0  0999 V2000
   24.6900   26.1200   35.5300 N   0  0  0  0  0  0  0  0  0  0  0  0
   25.6600   25.6700   34.6600 C   0  0  0  0  0  0  0  0  0  0  0  0
   25.2400   25.0100   33.7200 O   0  0  0  0  0  0  0  0  0  0  0  0
   27.0300   26.2200   34.8800 C   0  0  0  0  0  0  0  0  0  0  0  0
   27.3500   26.7300   36.0700 N   0  0  0  0  0  0  0  0  0  0  0  0
   28.5700   27.1800   36.3300 N   0  0  0  0  0  0  0  0  0  0  0  0
   29.5300   27.1100   35.3900 C   0  0  0  0  0  0  0  0  0  0  0  0
   30.8300   27.5700   35.6500 C   0  0  0  0  0  0  0  0  0  0  0  0
   31.8500   27.5400   34.6900 C   0  0  0  0  0  0  0  0  0  0  0  0
   31.5100   27.1200   33.4000 C   0  0  0  0  0  0  0  0  0  0  0  0
   30.2200   26.6300   33.1100 C   0  0  0  0  0  0  0  0  0  0  0  0
   29.2400   26.6600   34.1000 C   0  0  0  0  0  0  0  0  0  0  0  0
   27.9300   26.2600   33.8100 C   0  0  0  0  0  0  0  0  0  0  0  0
   27.5200   25.7100   32.6100 N   0  0  0  0  0  0  0  0  0  0  0  0
   23.5073   25.3804   35.9107 C   0  0  0  0  0  0  0  0  0  0  0  0
   23.3096   24.2024   35.3750 N   0  0  0  0  0  0  0  0  0  0  0  0
   22.3164   23.1628   35.4397 C   0  0  0  0  0  0  0  0  0  0  0  0
   21.0759   23.2949   35.8958 C   0  0  0  0  0  0  0  0  0  0  0  0
   19.7680   22.5915   35.6605 C   0  0  0  0  0  0  0  0  0  0  0  0
   18.9920   23.5462   36.3088 O   0  0  0  0  0  0  0  0  0  0  0  0
   20.1665   24.1991   36.6654 C   0  0  0  0  0  0  0  0  0  0  0  0
   20.2470   25.6367   36.1657 C   0  0  0  0  0  0  0  0  0  0  0  0
   21.3135   26.2975   36.9712 C   0  0  0  0  0  0  0  0  0  0  0  0
   22.6705   25.9846   36.9782 C   0  0  0  0  0  0  0  0  0  0  0  0
   23.2005   26.6222   38.0906 C   0  0  0  0  0  0  0  0  0  0  0  0
   22.2274   27.2617   38.7645 N   0  0  0  0  0  0  0  0  0  0  0  0
   22.3732   27.9427   40.0447 C   0  0  0  0  0  0  0  0  0  0  0  0
   21.0724   27.0484   38.1088 C   0  0  0  0  0  0  0  0  0  0  0  0
   24.8294   27.0591   35.9680 H   0  0  0  0  0  0  0  0  0  0  0  0
   31.0674   27.9417   36.6392 H   0  0  0  0  0  0  0  0  0  0  0  0
   32.8483   27.8883   34.9212 H   0  0  0  0  0  0  0  0  0  0  0  0
   32.2638   27.1262   32.6234 H   0  0  0  0  0  0  0  0  0  0  0  0
   30.0101   26.3034   32.1003 H   0  0  0  0  0  0  0  0  0  0  0  0
   28.1319   25.0441   32.0888 H   0  0  0  0  0  0  0  0  0  0  0  0
   26.6934   26.1021   32.1058 H   0  0  0  0  0  0  0  0  0  0  0  0
   22.5191   22.2716   34.8608 H   0  0  0  0  0  0  0  0  0  0  0  0
   19.7211   21.6057   36.1760 H   0  0  0  0  0  0  0  0  0  0  0  0
   19.5148   22.5357   34.5792 H   0  0  0  0  0  0  0  0  0  0  0  0
   20.3293   24.1063   37.7680 H   0  0  0  0  0  0  0  0  0  0  0  0
   19.2752   26.1496   36.3302 H   0  0  0  0  0  0  0  0  0  0  0  0
   20.4917   25.6866   35.0812 H   0  0  0  0  0  0  0  0  0  0  0  0
   24.2433   26.6180   38.3872 H   0  0  0  0  0  0  0  0  0  0  0  0
   21.6722   28.8023   40.0990 H   0  0  0  0  0  0  0  0  0  0  0  0
   23.4106   28.3238   40.1631 H   0  0  0  0  0  0  0  0  0  0  0  0
   22.1492   27.2349   40.8686 H   0  0  0  0  0  0  0  0  0  0  0  0
   20.1016   27.3751   38.4599 H   0  0  0  0  0  0  0  0  0  0  0  0
  1  2  1  0
  2  3  2  0
  2  4  1  0
  4  5  2  0
  5  6  1  0
  6  7  2  0
  7  8  1  0
  8  9  2  0
  9 10  1  0
 10 11  2  0
 11 12  1  0
 12 13  2  0
 13 14  1  0
  1 15  1  0
 15 16  2  0
 16 17  1  0
 17 18  2  0
 18 19  1  0
 19 20  1  0
 20 21  1  0
 21 22  1  0
 22 23  1  0
 23 24  1  0
 24 25  2  0
 25 26  1  0
 26 27  1  0
 26 28  1  0
 13  4  1  0
 24 15  1  0
 12  7  1  0
 21 18  1  0
 28 23  2  0
  1 29  1  0
  8 30  1  0
  9 31  1  0
 10 32  1  0
 11 33  1  0
 14 34  1  0
 14 35  1  0
 17 36  1  0
 19 37  1  0
 19 38  1  0
 21 39  1  0
 22 40  1  0
 22 41  1  0
 25 42  1  0
 27 43  1  0
 27 44  1  0
 27 45  1  0
 28 46  1  0
M  END
$$$$
confid_1
     RDKit          3D

 46 50  0  0  0  0  0  0  0  0999 V2000
   24.6900   26.1200   35.5300 N   0  0  0  0  0  0  0  0  0  0  0  0
   25.6600   25.6700   34.6600 C   0  0  0  0  0  0  0  0  0  0  0  0
   25.2400   25.0100   33.7200 O   0  0  0  0  0  0  0  0  0  0  0  0
   27.0300   26.2200   34.8800 C   0  0  0  0  0  0  0  0  0  0  0  0
   27.3500   26.7300   36.0700 N   0  0  0  0  0  0  0  0  0  0  0  0
   28.5700   27.1800   36.3300 N   0  0  0  0  0  0  0  0  0  0  0  0
   29.5300   27.1100   35.3900 C   0  0  0  0  0  0  0  0  0  0  0  0
   30.8300   27.5700   35.6500 C   0  0  0  0  0  0  0  0  0  0  0  0
   31.8500   27.5400   34.6900 C   0  0  0  0  0  0  0  0  0  0  0  0
   31.5100   27.1200   33.4000 C   0  0  0  0  0  0  0  0  0  0  0  0
   30.2200   26.6300   33.1100 C   0  0  0  0  0  0  0  0  0  0  0  0
   29.2400   26.6600   34.1000 C   0  0  0  0  0  0  0  0  0  0  0  0
   27.9300   26.2600   33.8100 C   0  0  0  0  0  0  0  0  0  0  0  0
   27.5200   25.7100   32.6100 N   0  0  0  0  0  0  0  0  0  0  0  0
   23.2646   26.0629   35.3078 C   0  0  0  0  0  0  0  0  0  0  0  0
   22.7897   25.8589   34.1074 N   0  0  0  0  0  0  0  0  0  0  0  0
   21.3985   25.8271   33.7645 C   0  0  0  0  0  0  0  0  0  0  0  0
   20.5612   24.9843   34.3600 C   0  0  0  0  0  0  0  0  0  0  0  0
   19.0895   24.7072   34.4284 C   0  0  0  0  0  0  0  0  0  0  0  0
   19.1949   23.6898   35.3735 O   0  0  0  0  0  0  0  0  0  0  0  0
   20.5795   23.8365   35.3349 C   0  0  0  0  0  0  0  0  0  0  0  0
   21.1758   24.1221   36.7306 C   0  0  0  0  0  0  0  0  0  0  0  0
   21.4182   25.5758   37.0255 C   0  0  0  0  0  0  0  0  0  0  0  0
   22.3658   26.3972   36.4347 C   0  0  0  0  0  0  0  0  0  0  0  0
   22.3017   27.6123   37.0883 C   0  0  0  0  0  0  0  0  0  0  0  0
   21.3586   27.5534   38.0498 N   0  0  0  0  0  0  0  0  0  0  0  0
   20.9417   28.6527   38.9112 C   0  0  0  0  0  0  0  0  0  0  0  0
   20.8096   26.3232   38.0147 C   0  0  0  0  0  0  0  0  0  0  0  0
   24.9791   26.4885   36.4643 H   0  0  0  0  0  0  0  0  0  0  0  0
   31.0672   27.9418   36.6393 H   0  0  0  0  0  0  0  0  0  0  0  0
   32.8482   27.8886   34.9210 H   0  0  0  0  0  0  0  0  0  0  0  0
   32.2640   27.1261   32.6236 H   0  0  0  0  0  0  0  0  0  0  0  0
   30.0101   26.3033   32.1004 H   0  0  0  0  0  0  0  0  0  0  0  0
   28.1315   25.0433   32.0893 H   0  0  0  0  0  0  0  0  0  0  0  0
   26.6934   26.1020   32.1061 H   0  0  0  0  0  0  0  0  0  0  0  0
   21.0240   26.5014   33.0064 H   0  0  0  0  0  0  0  0  0  0  0  0
   18.5210   25.5746   34.8301 H   0  0  0  0  0  0  0  0  0  0  0  0
   18.6886   24.3253   33.4630 H   0  0  0  0  0  0  0  0  0  0  0  0
   21.0492   22.9353   34.8776 H   0  0  0  0  0  0  0  0  0  0  0  0
   22.1525   23.5974   36.8086 H   0  0  0  0  0  0  0  0  0  0  0  0
   20.5161   23.6844   37.5111 H   0  0  0  0  0  0  0  0  0  0  0  0
   22.8973   28.4887   36.8643 H   0  0  0  0  0  0  0  0  0  0  0  0
   21.8034   29.3212   39.1213 H   0  0  0  0  0  0  0  0  0  0  0  0
   20.5577   28.2584   39.8762 H   0  0  0  0  0  0  0  0  0  0  0  0
   20.1404   29.2346   38.4094 H   0  0  0  0  0  0  0  0  0  0  0  0
   20.0232   25.9827   38.6761 H   0  0  0  0  0  0  0  0  0  0  0  0
  1  2  1  0
  2  3  2  0
  2  4  1  0
  4  5  2  0
  5  6  1  0
  6  7  2  0
  7  8  1  0
  8  9  2  0
  9 10  1  0
 10 11  2  0
 11 12  1  0
 12 13  2  0
 13 14  1  0
  1 15  1  0
 15 16  2  0
 16 17  1  0
 17 18  2  0
 18 19  1  0
 19 20  1  0
 20 21  1  0
 21 22  1  0
 22 23  1  0
 23 24  1  0
 24 25  2  0
 25 26  1  0
 26 27  1  0
 26 28  1  0
 13  4  1  0
 24 15  1  0
 12  7  1  0
 21 18  1  0
 28 23  2  0
  1 29  1  0
  8 30  1  0
  9 31  1  0
 10 32  1  0
 11 33  1  0
 14 34  1  0
 14 35  1  0
 17 36  1  0
 19 37  1  0
 19 38  1  0
 21 39  1  0
 22 40  1  0
 22 41  1  0
 25 42  1  0
 27 43  1  0
 27 44  1  0
 27 45  1  0
 28 46  1  0
M  END
$$$$
