confid_0
     RDKit          3D

 47 50  0  0  0  0  0  0  0  0999 V2000
   24.6900   26.1200   35.5300 N   0  0  0  0  0  0  0  0  0  0  0  0
   25.6600   25.6700   34.6600 C   0  0  0  0  0  0  0  0  0  0  0  0
   25.2400   25.0100   33.7200 O   0  0  0  0  0  0  0  0  0  0  0  0
   27.0300   26.2200   34.8800 C   0  0  0  0  0  0  0  0  0  0  0  0
   27.3500   26.7300   36.0700 N   0  0  0  0  0  0  0  0  0  0  0  0
   28.5700   27.1800   36.3300 N   0  0  0  0  0  0  0  0  0  0  0  0
   29.5300   27.1100   35.3900 C   0  0  0  0  0  0  0  0  0  0  0  0
   30.8300   27.5700   35.6500 C   0  0  0  0  0  0  0  0  0  0  0  0
   31.8500   27.5400   34.6900 C   0  0  0  0  0  0  0  0  0  0  0  0
   31.5100   27.1200   33.4000 C   0  0  0  0  0  0  0  0  0  0  0  0
   30.2200   26.6300   33.1100 C   0  0  0  0  0  0  0  0  0  0  0  0
   29.2400   26.6600   34.1000 C   0  0  0  0  0  0  0  0  0  0  0  0
   27.9300   26.2600   33.8100 C   0  0  0  0  0  0  0  0  0  0  0  0
   27.5200   25.7100   32.6100 N   0  0  0  0  0  0  0  0  0  0  0  0
   31.1500   28.0669   36.9632 N   0  0  0  0  0  0  0  0  0  0  0  0
   31.5718   29.4638   37.1066 C   0  0  0  0  0  0  0  0  0  0  0  0
   30.9688   30.0570   38.3764 C   0  0  0  0  0  0  0  0  0  0  0  0
   31.3208   29.2271   39.5358 N   0  0  0  0  0  0  0  0  0  0  0  0
   31.7725   29.8643   40.7782 C   0  0  0  0  0  0  0  0  0  0  0  0
   31.2420   27.7862   39.4134 C   0  0  0  0  0  0  0  0  0  0  0  0
   31.2607   26.9494   40.5470 C   0  0  0  0  0  0  0  0  0  0  0  0
   31.1935   25.5588   40.4173 C   0  0  0  0  0  0  0  0  0  0  0  0
   31.1124   24.9912   39.1354 C   0  0  0  0  0  0  0  0  0  0  0  0
   31.0958   25.8065   38.0037 C   0  0  0  0  0  0  0  0  0  0  0  0
   31.1529   27.2073   38.1280 C   0  0  0  0  0  0  0  0  0  0  0  0
   31.2114   24.7800   41.5841 O   0  0  0  0  0  0  0  0  0  0  0  0
   31.1453   23.3578   41.6031 C   0  0  0  0  0  0  0  0  0  0  0  0
   23.6979   25.8089   35.4220 H   0  0  0  0  0  0  0  0  0  0  0  0
   24.8906   26.7918   36.3039 H   0  0  0  0  0  0  0  0  0  0  0  0
   32.8515   27.8836   34.9162 H   0  0  0  0  0  0  0  0  0  0  0  0
   32.2642   27.1253   32.6238 H   0  0  0  0  0  0  0  0  0  0  0  0
   30.0101   26.3030   32.1005 H   0  0  0  0  0  0  0  0  0  0  0  0
   28.1316   25.0435   32.0893 H   0  0  0  0  0  0  0  0  0  0  0  0
   26.6941   26.1028   32.1054 H   0  0  0  0  0  0  0  0  0  0  0  0
   32.6810   29.5092   37.1611 H   0  0  0  0  0  0  0  0  0  0  0  0
   31.2362   30.0662   36.2334 H   0  0  0  0  0  0  0  0  0  0  0  0
   31.3309   31.1010   38.4950 H   0  0  0  0  0  0  0  0  0  0  0  0
   29.8624   30.0852   38.2749 H   0  0  0  0  0  0  0  0  0  0  0  0
   31.0280   29.6905   41.5829 H   0  0  0  0  0  0  0  0  0  0  0  0
   31.8899   30.9616   40.6573 H   0  0  0  0  0  0  0  0  0  0  0  0
   32.7554   29.4451   41.0803 H   0  0  0  0  0  0  0  0  0  0  0  0
   31.3216   27.3666   41.5426 H   0  0  0  0  0  0  0  0  0  0  0  0
   31.0654   23.9192   39.0016 H   0  0  0  0  0  0  0  0  0  0  0  0
   31.0498   25.3354   37.0308 H   0  0  0  0  0  0  0  0  0  0  0  0
   31.1717   23.0080   42.6554 H   0  0  0  0  0  0  0  0  0  0  0  0
   32.0153   22.9277   41.0637 H   0  0  0  0  0  0  0  0  0  0  0  0
   30.1979   23.0133   41.1376 H   0  0  0  0  0  0  0  0  0  0  0  0
  1  2  1  0
  2  3  2  0
  2  4  1  0
  4  5  2  0
  5  6  1  0
  6  7  2  0
  7  8  1  0
  8  9  2  0
  9 10  1  0
 10 11  2  0
 11 12  1  0
 12 13  2  0
 13 14  1  0
  8 15  1  0
 15 16  1  0
 16 17  1  0
 17 18  1  0
 18 19  1  0
 18 20  1  0
 20 21  2  0
 21 22  1  0
 22 23  2  0
 23 24  1  0
 24 25  2  0
 22 26  1  0
 26 27  1  0
 13  4  1  0
 25 15  1  0
 12  7  1  0
 25 20  1  0
  1 28  1  0
  1 29  1  0
  9 30  1  0
 10 31  1  0
 11 32  1  0
 14 33  1  0
 14 34  1  0
 16 35  1  0
 16 36  1  0
 17 37  1  0
 17 38  1  0
 19 39  1  0
 19 40  1  0
 19 41  1  0
 21 42  1  0
 23 43  1  0
 24 44  1  0
 27 45  1  0
 27 46  1  0
 27 47  1  0
M  END
$$$$
confid_1
     RDKit          3D

 47 50  0  0  0  0  0  0  0  0999 V2000
   24.6900   26.1200   35.5300 N   0  0  0  0  0  0  0  0  0  0  0  0
   25.6600   25.6700   34.6600 C   0  0  0  0  0  0  0  0  0  0  0  0
   25.2400   25.0100   33.7200 O   0  0  0  0  0  0  0  0  0  0  0  0
   27.0300   26.2200   34.8800 C   0  0  0  0  0  0  0  0  0  0  0  0
   27.3500   26.7300   36.0700 N   0  0  0  0  0  0  0  0  0  0  0  0
   28.5700   27.1800   36.3300 N   0  0  0  0  0  0  0  0  0  0  0  0
   29.5300   27.1100   35.3900 C   0  0  0  0  0  0  0  0  0  0  0  0
   30.8300   27.5700   35.6500 C   0  0  0  0  0  0  0  0  0  0  0  0
   31.8500   27.5400   34.6900 C   0  0  0  0  0  0  0  0  0  0  0  0
   31.5100   27.1200   33.4000 C   0  0  0  0  0  0  0  0  0  0  0  0
   30.2200   26.6300   33.1100 C   0  0  0  0  0  0  0  0  0  0  0  0
   29.2400   26.6600   34.1000 C   0  0  0  0  0  0  0  0  0  0  0  0
   27.9300   26.2600   33.8100 C   0  0  0  0  0  0  0  0  0  0  0  0
   27.5200   25.7100   32.6100 N   0  0  0  0  0  0  0  0  0  0  0  0
   31.1582   28.0582   36.9644 N   0  0  0  0  0  0  0  0  0  0  0  0
   31.1203   27.1322   38.1019 C   0  0  0  0  0  0  0  0  0  0  0  0
   32.3346   27.3635   38.9965 C   0  0  0  0  0  0  0  0  0  0  0  0
   32.3962   28.7736   39.4034 N   0  0  0  0  0  0  0  0  0  0  0  0
   32.6801   29.1180   40.8012 C   0  0  0  0  0  0  0  0  0  0  0  0
   32.1440   29.7975   38.4109 C   0  0  0  0  0  0  0  0  0  0  0  0
   32.4886   31.1447   38.6386 C   0  0  0  0  0  0  0  0  0  0  0  0
   32.2367   32.1254   37.6742 C   0  0  0  0  0  0  0  0  0  0  0  0
   31.6258   31.7586   36.4638 C   0  0  0  0  0  0  0  0  0  0  0  0
   31.2755   30.4295   36.2258 C   0  0  0  0  0  0  0  0  0  0  0  0
   31.5340   29.4370   37.1890 C   0  0  0  0  0  0  0  0  0  0  0  0
   32.6069   33.4486   37.9582 O   0  0  0  0  0  0  0  0  0  0  0  0
   32.4118   34.5465   37.0727 C   0  0  0  0  0  0  0  0  0  0  0  0
   23.6981   25.8077   35.4228 H   0  0  0  0  0  0  0  0  0  0  0  0
   24.8908   26.7905   36.3050 H   0  0  0  0  0  0  0  0  0  0  0  0
   32.8516   27.8829   34.9173 H   0  0  0  0  0  0  0  0  0  0  0  0
   32.2657   27.1202   32.6252 H   0  0  0  0  0  0  0  0  0  0  0  0
   30.0114   26.2784   32.1079 H   0  0  0  0  0  0  0  0  0  0  0  0
   27.6978   26.2229   31.7183 H   0  0  0  0  0  0  0  0  0  0  0  0
   27.3415   24.6832   32.5416 H   0  0  0  0  0  0  0  0  0  0  0  0
   31.1258   26.0766   37.7503 H   0  0  0  0  0  0  0  0  0  0  0  0
   30.1903   27.3041   38.6856 H   0  0  0  0  0  0  0  0  0  0  0  0
   32.2709   26.6860   39.8750 H   0  0  0  0  0  0  0  0  0  0  0  0
   33.2573   27.1097   38.4310 H   0  0  0  0  0  0  0  0  0  0  0  0
   32.7263   28.2148   41.4450 H   0  0  0  0  0  0  0  0  0  0  0  0
   33.6610   29.6329   40.8705 H   0  0  0  0  0  0  0  0  0  0  0  0
   31.8804   29.7800   41.1955 H   0  0  0  0  0  0  0  0  0  0  0  0
   32.9620   31.4468   39.5625 H   0  0  0  0  0  0  0  0  0  0  0  0
   31.4123   32.4947   35.7008 H   0  0  0  0  0  0  0  0  0  0  0  0
   30.7896   30.1831   35.2909 H   0  0  0  0  0  0  0  0  0  0  0  0
   31.3296   34.6796   36.8621 H   0  0  0  0  0  0  0  0  0  0  0  0
   32.7969   35.4704   37.5506 H   0  0  0  0  0  0  0  0  0  0  0  0
   32.9679   34.3772   36.1264 H   0  0  0  0  0  0  0  0  0  0  0  0
  1  2  1  0
  2  3  2  0
  2  4  1  0
  4  5  2  0
  5  6  1  0
  6  7  2  0
  7  8  1  0
  8  9  2  0
  9 10  1  0
 10 11  2  0
 11 12  1  0
 12 13  2  0
 13 14  1  0
  8 15  1  0
 15 16  1  0
 16 17  1  0
 17 18  1  0
 18 19  1  0
 18 20  1  0
 20 21  2  0
 21 22  1  0
 22 23  2  0
 23 24  1  0
 24 25  2  0
 22 26  1  0
 26 27  1  0
 13  4  1  0
 25 15  1  0
 12  7  1  0
 25 20  1  0
  1 28  1  0
  1 29  1  0
  9 30  1  0
 10 31  1  0
 11 32  1  0
 14 33  1  0
 14 34  1  0
 16 35  1  0
 16 36  1  0
 17 37  1  0
 17 38  1  0
 19 39  1  0
 19 40  1  0
 19 41  1  0
 21 42  1  0
 23 43  1  0
 24 44  1  0
 27 45  1  0
 27 46  1  0
 27 47  1  0
M  END
$$$$
confid_2
     RDKit          3D

 47 50  0  0  0  0  0  0  0  0999 V2000
   24.6900   26.1200   35.5300 N   0  0  0  0  0  0  0  0  0  0  0  0
   25.6600   25.6700   34.6600 C   0  0  0  0  0  0  0  0  0  0  0  0
   25.2400   25.0100   33.7200 O   0  0  0  0  0  0  0  0  0  0  0  0
   27.0300   26.2200   34.8800 C   0  0  0  0  0  0  0  0  0  0  0  0
   27.3500   26.7300   36.0700 N   0  0  0  0  0  0  0  0  0  0  0  0
   28.5700   27.1800   36.3300 N   0  0  0  0  0  0  0  0  0  0  0  0
   29.5300   27.1100   35.3900 C   0  0  0  0  0  0  0  0  0  0  0  0
   30.8300   27.5700   35.6500 C   0  0  0  0  0  0  0  0  0  0  0  0
   31.8500   27.5400   34.6900 C   0  0  0  0  0  0  0  0  0  0  0  0
   31.5100   27.1200   33.4000 C   0  0  0  0  0  0  0  0  0  0  0  0
   30.2200   26.6300   33.1100 C   0  0  0  0  0  0  0  0  0  0  0  0
   29.2400   26.6600   34.1000 C   0  0  0  0  0  0  0  0  0  0  0  0
   27.9300   26.2600   33.8100 C   0  0  0  0  0  0  0  0  0  0  0  0
   27.5200   25.7100   32.6100 N   0  0  0  0  0  0  0  0  0  0  0  0
   31.1522   28.0761   36.9586 N   0  0  0  0  0  0  0  0  0  0  0  0
   30.5412   29.3317   37.4082 C   0  0  0  0  0  0  0  0  0  0  0  0
   31.5857   30.1899   38.1160 C   0  0  0  0  0  0  0  0  0  0  0  0
   32.2054   29.4268   39.2075 N   0  0  0  0  0  0  0  0  0  0  0  0
   32.4010   30.0558   40.5186 C   0  0  0  0  0  0  0  0  0  0  0  0
   32.5842   28.0498   38.9679 C   0  0  0  0  0  0  0  0  0  0  0  0
   33.4546   27.3635   39.8378 C   0  0  0  0  0  0  0  0  0  0  0  0
   33.8110   26.0328   39.5977 C   0  0  0  0  0  0  0  0  0  0  0  0
   33.2870   25.3725   38.4742 C   0  0  0  0  0  0  0  0  0  0  0  0
   32.4211   26.0380   37.6062 C   0  0  0  0  0  0  0  0  0  0  0  0
   32.0648   27.3792   37.8385 C   0  0  0  0  0  0  0  0  0  0  0  0
   34.6849   25.4052   40.4982 O   0  0  0  0  0  0  0  0  0  0  0  0
   35.1321   24.0585   40.3794 C   0  0  0  0  0  0  0  0  0  0  0  0
   23.6981   25.8078   35.4227 H   0  0  0  0  0  0  0  0  0  0  0  0
   24.8908   26.7905   36.3050 H   0  0  0  0  0  0  0  0  0  0  0  0
   32.8495   27.8904   34.9154 H   0  0  0  0  0  0  0  0  0  0  0  0
   32.2639   27.1267   32.6234 H   0  0  0  0  0  0  0  0  0  0  0  0
   30.0101   26.3034   32.1004 H   0  0  0  0  0  0  0  0  0  0  0  0
   28.1317   25.0435   32.0893 H   0  0  0  0  0  0  0  0  0  0  0  0
   26.6941   26.1028   32.1054 H   0  0  0  0  0  0  0  0  0  0  0  0
   30.1302   29.9004   36.5447 H   0  0  0  0  0  0  0  0  0  0  0  0
   29.7090   29.1057   38.1092 H   0  0  0  0  0  0  0  0  0  0  0  0
   31.0998   31.1172   38.4887 H   0  0  0  0  0  0  0  0  0  0  0  0
   32.3724   30.4816   37.3868 H   0  0  0  0  0  0  0  0  0  0  0  0
   33.4859   30.1661   40.7254 H   0  0  0  0  0  0  0  0  0  0  0  0
   31.9445   31.0669   40.5606 H   0  0  0  0  0  0  0  0  0  0  0  0
   31.9300   29.4335   41.3086 H   0  0  0  0  0  0  0  0  0  0  0  0
   33.8709   27.8549   40.7062 H   0  0  0  0  0  0  0  0  0  0  0  0
   33.5389   24.3420   38.2646 H   0  0  0  0  0  0  0  0  0  0  0  0
   32.0208   25.4953   36.7601 H   0  0  0  0  0  0  0  0  0  0  0  0
   35.8129   23.8267   41.2239 H   0  0  0  0  0  0  0  0  0  0  0  0
   34.2666   23.3639   40.4194 H   0  0  0  0  0  0  0  0  0  0  0  0
   35.6876   23.9232   39.4274 H   0  0  0  0  0  0  0  0  0  0  0  0
  1  2  1  0
  2  3  2  0
  2  4  1  0
  4  5  2  0
  5  6  1  0
  6  7  2  0
  7  8  1  0
  8  9  2  0
  9 10  1  0
 10 11  2  0
 11 12  1  0
 12 13  2  0
 13 14  1  0
  8 15  1  0
 15 16  1  0
 16 17  1  0
 17 18  1  0
 18 19  1  0
 18 20  1  0
 20 21  2  0
 21 22  1  0
 22 23  2  0
 23 24  1  0
 24 25  2  0
 22 26  1  0
 26 27  1  0
 13  4  1  0
 25 15  1  0
 12  7  1  0
 25 20  1  0
  1 28  1  0
  1 29  1  0
  9 30  1  0
 10 31  1  0
 11 32  1  0
 14 33  1  0
 14 34  1  0
 16 35  1  0
 16 36  1  0
 17 37  1  0
 17 38  1  0
 19 39  1  0
 19 40  1  0
 19 41  1  0
 21 42  1  0
 23 43  1  0
 24 44  1  0
 27 45  1  0
 27 46  1  0
 27 47  1  0
M  END
$$$$
confid_3
     RDKit          3D

 47 50  0  0  0  0  0  0  0  0999 V2000
   24.6900   26.1200   35.5300 N   0  0  0  0  0  0  0  0  0  0  0  0
   25.6600   25.6700   34.6600 C   0  0  0  0  0  0  0  0  0  0  0  0
   25.2400   25.0100   33.7200 O   0  0  0  0  0  0  0  0  0  0  0  0
   27.0300   26.2200   34.8800 C   0  0  0  0  0  0  0  0  0  0  0  0
   27.3500   26.7300   36.0700 N   0  0  0  0  0  0  0  0  0  0  0  0
   28.5700   27.1800   36.3300 N   0  0  0  0  0  0  0  0  0  0  0  0
   29.5300   27.1100   35.3900 C   0  0  0  0  0  0  0  0  0  0  0  0
   30.8300   27.5700   35.6500 C   0  0  0  0  0  0  0  0  0  0  0  0
   31.8500   27.5400   34.6900 C   0  0  0  0  0  0  0  0  0  0  0  0
   31.5100   27.1200   33.4000 C   0  0  0  0  0  0  0  0  0  0  0  0
   30.2200   26.6300   33.1100 C   0  0  0  0  0  0  0  0  0  0  0  0
   29.2400   26.6600   34.1000 C   0  0  0  0  0  0  0  0  0  0  0  0
   27.9300   26.2600   33.8100 C   0  0  0  0  0  0  0  0  0  0  0  0
   27.5200   25.7100   32.6100 N   0  0  0  0  0  0  0  0  0  0  0  0
   31.1502   28.0658   36.9634 N   0  0  0  0  0  0  0  0  0  0  0  0
   31.5630   29.4652   37.1088 C   0  0  0  0  0  0  0  0  0  0  0  0
   30.9555   30.0522   38.3795 C   0  0  0  0  0  0  0  0  0  0  0  0
   31.3152   29.2231   39.5374 N   0  0  0  0  0  0  0  0  0  0  0  0
   31.7712   29.8620   40.7773 C   0  0  0  0  0  0  0  0  0  0  0  0
   31.2413   27.7818   39.4139 C   0  0  0  0  0  0  0  0  0  0  0  0
   31.2616   26.9438   40.5475 C   0  0  0  0  0  0  0  0  0  0  0  0
   31.1993   25.5452   40.4086 C   0  0  0  0  0  0  0  0  0  0  0  0
   31.1226   24.9884   39.1309 C   0  0  0  0  0  0  0  0  0  0  0  0
   31.1047   25.8039   38.0001 C   0  0  0  0  0  0  0  0  0  0  0  0
   31.1557   27.2045   38.1271 C   0  0  0  0  0  0  0  0  0  0  0  0
   31.2131   24.6769   41.5108 O   0  0  0  0  0  0  0  0  0  0  0  0
   31.2894   25.0985   42.8688 C   0  0  0  0  0  0  0  0  0  0  0  0
   24.8908   26.7903   36.3052 H   0  0  0  0  0  0  0  0  0  0  0  0
   23.6981   25.8079   35.4226 H   0  0  0  0  0  0  0  0  0  0  0  0
   32.8515   27.8836   34.9163 H   0  0  0  0  0  0  0  0  0  0  0  0
   32.2642   27.1253   32.6238 H   0  0  0  0  0  0  0  0  0  0  0  0
   30.0101   26.3031   32.1005 H   0  0  0  0  0  0  0  0  0  0  0  0
   28.1316   25.0434   32.0893 H   0  0  0  0  0  0  0  0  0  0  0  0
   26.6941   26.1028   32.1054 H   0  0  0  0  0  0  0  0  0  0  0  0
   32.6719   29.5179   37.1637 H   0  0  0  0  0  0  0  0  0  0  0  0
   31.2238   30.0668   36.2365 H   0  0  0  0  0  0  0  0  0  0  0  0
   29.8487   30.0712   38.2786 H   0  0  0  0  0  0  0  0  0  0  0  0
   31.3090   31.0989   38.4991 H   0  0  0  0  0  0  0  0  0  0  0  0
   32.7547   29.4425   41.0772 H   0  0  0  0  0  0  0  0  0  0  0  0
   31.0285   29.6911   41.5843 H   0  0  0  0  0  0  0  0  0  0  0  0
   31.8896   30.9589   40.6542 H   0  0  0  0  0  0  0  0  0  0  0  0
   31.3186   27.3761   41.5346 H   0  0  0  0  0  0  0  0  0  0  0  0
   31.0807   23.9129   39.0133 H   0  0  0  0  0  0  0  0  0  0  0  0
   31.0617   25.3337   37.0268 H   0  0  0  0  0  0  0  0  0  0  0  0
   31.2833   24.2053   43.5264 H   0  0  0  0  0  0  0  0  0  0  0  0
   30.4130   25.7319   43.1219 H   0  0  0  0  0  0  0  0  0  0  0  0
   32.2313   25.6607   43.0419 H   0  0  0  0  0  0  0  0  0  0  0  0
  1  2  1  0
  2  3  2  0
  2  4  1  0
  4  5  2  0
  5  6  1  0
  6  7  2  0
  7  8  1  0
  8  9  2  0
  9 10  1  0
 10 11  2  0
 11 12  1  0
 12 13  2  0
 13 14  1  0
  8 15  1  0
 15 16  1  0
 16 17  1  0
 17 18  1  0
 18 19  1  0
 18 20  1  0
 20 21  2  0
 21 22  1  0
 22 23  2  0
 23 24  1  0
 24 25  2  0
 22 26  1  0
 26 27  1  0
 13  4  1  0
 25 15  1  0
 12  7  1  0
 25 20  1  0
  1 28  1  0
  1 29  1  0
  9 30  1  0
 10 31  1  0
 11 32  1  0
 14 33  1  0
 14 34  1  0
 16 35  1  0
 16 36  1  0
 17 37  1  0
 17 38  1  0
 19 39  1  0
 19 40  1  0
 19 41  1  0
 21 42  1  0
 23 43  1  0
 24 44  1  0
 27 45  1  0
 27 46  1  0
 27 47  1  0
M  END
$$$$
confid_4
     RDKit          3D

 47 50  0  0  0  0  0  0  0  0999 V2000
   24.6900   26.1200   35.5300 N   0  0  0  0  0  0  0  0  0  0  0  0
   25.6600   25.6700   34.6600 C   0  0  0  0  0  0  0  0  0  0  0  0
   25.2400   25.0100   33.7200 O   0  0  0  0  0  0  0  0  0  0  0  0
   27.0300   26.2200   34.8800 C   0  0  0  0  0  0  0  0  0  0  0  0
   27.3500   26.7300   36.0700 N   0  0  0  0  0  0  0  0  0  0  0  0
   28.5700   27.1800   36.3300 N   0  0  0  0  0  0  0  0  0  0  0  0
   29.5300   27.1100   35.3900 C   0  0  0  0  0  0  0  0  0  0  0  0
   30.8300   27.5700   35.6500 C   0  0  0  0  0  0  0  0  0  0  0  0
   31.8500   27.5400   34.6900 C   0  0  0  0  0  0  0  0  0  0  0  0
   31.5100   27.1200   33.4000 C   0  0  0  0  0  0  0  0  0  0  0  0
   30.2200   26.6300   33.1100 C   0  0  0  0  0  0  0  0  0  0  0  0
   29.2400   26.6600   34.1000 C   0  0  0  0  0  0  0  0  0  0  0  0
   27.9300   26.2600   33.8100 C   0  0  0  0  0  0  0  0  0  0  0  0
   27.5200   25.7100   32.6100 N   0  0  0  0  0  0  0  0  0  0  0  0
   31.1480   28.0692   36.9624 N   0  0  0  0  0  0  0  0  0  0  0  0
   32.1346   27.3480   37.7730 C   0  0  0  0  0  0  0  0  0  0  0  0
   31.6998   27.3459   39.2357 C   0  0  0  0  0  0  0  0  0  0  0  0
   31.4704   28.7219   39.6938 N   0  0  0  0  0  0  0  0  0  0  0  0
   32.0006   29.1580   40.9909 C   0  0  0  0  0  0  0  0  0  0  0  0
   30.7516   29.6340   38.8291 C   0  0  0  0  0  0  0  0  0  0  0  0
   30.2178   30.8433   39.3168 C   0  0  0  0  0  0  0  0  0  0  0  0
   29.5330   31.7214   38.4710 C   0  0  0  0  0  0  0  0  0  0  0  0
   29.3829   31.3923   37.1142 C   0  0  0  0  0  0  0  0  0  0  0  0
   29.9080   30.1995   36.6165 C   0  0  0  0  0  0  0  0  0  0  0  0
   30.5890   29.3064   37.4649 C   0  0  0  0  0  0  0  0  0  0  0  0
   29.0195   32.9073   39.0177 O   0  0  0  0  0  0  0  0  0  0  0  0
   28.2935   33.8850   38.2802 C   0  0  0  0  0  0  0  0  0  0  0  0
   23.6984   25.8068   35.4235 H   0  0  0  0  0  0  0  0  0  0  0  0
   24.8906   26.7912   36.3044 H   0  0  0  0  0  0  0  0  0  0  0  0
   32.8497   27.8900   34.9144 H   0  0  0  0  0  0  0  0  0  0  0  0
   32.2652   27.1217   32.6247 H   0  0  0  0  0  0  0  0  0  0  0  0
   30.0113   26.2787   32.1078 H   0  0  0  0  0  0  0  0  0  0  0  0
   27.6973   26.2232   31.7184 H   0  0  0  0  0  0  0  0  0  0  0  0
   27.3418   24.6831   32.5415 H   0  0  0  0  0  0  0  0  0  0  0  0
   33.1244   27.8446   37.6761 H   0  0  0  0  0  0  0  0  0  0  0  0
   32.2319   26.2953   37.4258 H   0  0  0  0  0  0  0  0  0  0  0  0
   30.7540   26.7701   39.3331 H   0  0  0  0  0  0  0  0  0  0  0  0
   32.4773   26.8358   39.8438 H   0  0  0  0  0  0  0  0  0  0  0  0
   32.6257   30.0660   40.8561 H   0  0  0  0  0  0  0  0  0  0  0  0
   31.1633   29.3784   41.6853 H   0  0  0  0  0  0  0  0  0  0  0  0
   32.6309   28.3742   41.4605 H   0  0  0  0  0  0  0  0  0  0  0  0
   30.3205   31.1132   40.3584 H   0  0  0  0  0  0  0  0  0  0  0  0
   28.8642   32.0534   36.4335 H   0  0  0  0  0  0  0  0  0  0  0  0
   29.7881   29.9842   35.5631 H   0  0  0  0  0  0  0  0  0  0  0  0
   28.9270   34.2980   37.4670 H   0  0  0  0  0  0  0  0  0  0  0  0
   27.3705   33.4358   37.8557 H   0  0  0  0  0  0  0  0  0  0  0  0
   28.0049   34.7121   38.9610 H   0  0  0  0  0  0  0  0  0  0  0  0
  1  2  1  0
  2  3  2  0
  2  4  1  0
  4  5  2  0
  5  6  1  0
  6  7  2  0
  7  8  1  0
  8  9  2  0
  9 10  1  0
 10 11  2  0
 11 12  1  0
 12 13  2  0
 13 14  1  0
  8 15  1  0
 15 16  1  0
 16 17  1  0
 17 18  1  0
 18 19  1  0
 18 20  1  0
 20 21  2  0
 21 22  1  0
 22 23  2  0
 23 24  1  0
 24 25  2  0
 22 26  1  0
 26 27  1  0
 13  4  1  0
 25 15  1  0
 12  7  1  0
 25 20  1  0
  1 28  1  0
  1 29  1  0
  9 30  1  0
 10 31  1  0
 11 32  1  0
 14 33  1  0
 14 34  1  0
 16 35  1  0
 16 36  1  0
 17 37  1  0
 17 38  1  0
 19 39  1  0
 19 40  1  0
 19 41  1  0
 21 42  1  0
 23 43  1  0
 24 44  1  0
 27 45  1  0
 27 46  1  0
 27 47  1  0
M  END
$$$$
confid_5
     RDKit          3D

 47 50  0  0  0  0  0  0  0  0999 V2000
   24.6900   26.1200   35.5300 N   0  0  0  0  0  0  0  0  0  0  0  0
   25.6600   25.6700   34.6600 C   0  0  0  0  0  0  0  0  0  0  0  0
   25.2400   25.0100   33.7200 O   0  0  0  0  0  0  0  0  0  0  0  0
   27.0300   26.2200   34.8800 C   0  0  0  0  0  0  0  0  0  0  0  0
   27.3500   26.7300   36.0700 N   0  0  0  0  0  0  0  0  0  0  0  0
   28.5700   27.1800   36.3300 N   0  0  0  0  0  0  0  0  0  0  0  0
   29.5300   27.1100   35.3900 C   0  0  0  0  0  0  0  0  0  0  0  0
   30.8300   27.5700   35.6500 C   0  0  0  0  0  0  0  0  0  0  0  0
   31.8500   27.5400   34.6900 C   0  0  0  0  0  0  0  0  0  0  0  0
   31.5100   27.1200   33.4000 C   0  0  0  0  0  0  0  0  0  0  0  0
   30.2200   26.6300   33.1100 C   0  0  0  0  0  0  0  0  0  0  0  0
   29.2400   26.6600   34.1000 C   0  0  0  0  0  0  0  0  0  0  0  0
   27.9300   26.2600   33.8100 C   0  0  0  0  0  0  0  0  0  0  0  0
   27.5200   25.7100   32.6100 N   0  0  0  0  0  0  0  0  0  0  0  0
   31.1522   28.0759   36.9587 N   0  0  0  0  0  0  0  0  0  0  0  0
   30.5433   29.3331   37.4066 C   0  0  0  0  0  0  0  0  0  0  0  0
   31.5879   30.1877   38.1184 C   0  0  0  0  0  0  0  0  0  0  0  0
   32.1997   29.4221   39.2126 N   0  0  0  0  0  0  0  0  0  0  0  0
   32.3805   30.0465   40.5282 C   0  0  0  0  0  0  0  0  0  0  0  0
   32.5796   28.0454   38.9718 C   0  0  0  0  0  0  0  0  0  0  0  0
   33.4490   27.3582   39.8431 C   0  0  0  0  0  0  0  0  0  0  0  0
   33.8037   26.0193   39.5955 C   0  0  0  0  0  0  0  0  0  0  0  0
   33.2814   25.3701   38.4753 C   0  0  0  0  0  0  0  0  0  0  0  0
   32.4179   26.0360   37.6062 C   0  0  0  0  0  0  0  0  0  0  0  0
   32.0621   27.3769   37.8400 C   0  0  0  0  0  0  0  0  0  0  0  0
   34.6678   25.3007   40.4357 O   0  0  0  0  0  0  0  0  0  0  0  0
   35.2735   25.8288   41.6112 C   0  0  0  0  0  0  0  0  0  0  0  0
   24.8908   26.7905   36.3050 H   0  0  0  0  0  0  0  0  0  0  0  0
   23.6981   25.8077   35.4228 H   0  0  0  0  0  0  0  0  0  0  0  0
   32.8498   27.8892   34.9158 H   0  0  0  0  0  0  0  0  0  0  0  0
   32.2654   27.1213   32.6249 H   0  0  0  0  0  0  0  0  0  0  0  0
   30.0114   26.2785   32.1078 H   0  0  0  0  0  0  0  0  0  0  0  0
   27.3415   24.6831   32.5416 H   0  0  0  0  0  0  0  0  0  0  0  0
   27.6978   26.2229   31.7183 H   0  0  0  0  0  0  0  0  0  0  0  0
   30.1372   29.9034   36.5419 H   0  0  0  0  0  0  0  0  0  0  0  0
   29.7079   29.1093   38.1046 H   0  0  0  0  0  0  0  0  0  0  0  0
   32.3787   30.4762   37.3925 H   0  0  0  0  0  0  0  0  0  0  0  0
   31.1041   31.1171   38.4886 H   0  0  0  0  0  0  0  0  0  0  0  0
   33.4630   30.1643   40.7436 H   0  0  0  0  0  0  0  0  0  0  0  0
   31.9157   31.0536   40.5716 H   0  0  0  0  0  0  0  0  0  0  0  0
   31.9083   29.4169   41.3117 H   0  0  0  0  0  0  0  0  0  0  0  0
   33.8549   27.8632   40.7061 H   0  0  0  0  0  0  0  0  0  0  0  0
   33.5439   24.3381   38.2793 H   0  0  0  0  0  0  0  0  0  0  0  0
   32.0196   25.4943   36.7586 H   0  0  0  0  0  0  0  0  0  0  0  0
   35.9035   25.0442   42.0780 H   0  0  0  0  0  0  0  0  0  0  0  0
   34.4925   26.1365   42.3382 H   0  0  0  0  0  0  0  0  0  0  0  0
   35.9186   26.6949   41.3524 H   0  0  0  0  0  0  0  0  0  0  0  0
  1  2  1  0
  2  3  2  0
  2  4  1  0
  4  5  2  0
  5  6  1  0
  6  7  2  0
  7  8  1  0
  8  9  2  0
  9 10  1  0
 10 11  2  0
 11 12  1  0
 12 13  2  0
 13 14  1  0
  8 15  1  0
 15 16  1  0
 16 17  1  0
 17 18  1  0
 18 19  1  0
 18 20  1  0
 20 21  2  0
 21 22  1  0
 22 23  2  0
 23 24  1  0
 24 25  2  0
 22 26  1  0
 26 27  1  0
 13  4  1  0
 25 15  1  0
 12  7  1  0
 25 20  1  0
  1 28  1  0
  1 29  1  0
  9 30  1  0
 10 31  1  0
 11 32  1  0
 14 33  1  0
 14 34  1  0
 16 35  1  0
 16 36  1  0
 17 37  1  0
 17 38  1  0
 19 39  1  0
 19 40  1  0
 19 41  1  0
 21 42  1  0
 23 43  1  0
 24 44  1  0
 27 45  1  0
 27 46  1  0
 27 47  1  0
M  END
$$$$
confid_6
     RDKit          3D

 47 50  0  0  0  0  0  0  0  0999 V2000
   24.6900   26.1200   35.5300 N   0  0  0  0  0  0  0  0  0  0  0  0
   25.6600   25.6700   34.6600 C   0  0  0  0  0  0  0  0  0  0  0  0
   25.2400   25.0100   33.7200 O   0  0  0  0  0  0  0  0  0  0  0  0
   27.0300   26.2200   34.8800 C   0  0  0  0  0  0  0  0  0  0  0  0
   27.3500   26.7300   36.0700 N   0  0  0  0  0  0  0  0  0  0  0  0
   28.5700   27.1800   36.3300 N   0  0  0  0  0  0  0  0  0  0  0  0
   29.5300   27.1100   35.3900 C   0  0  0  0  0  0  0  0  0  0  0  0
   30.8300   27.5700   35.6500 C   0  0  0  0  0  0  0  0  0  0  0  0
   31.8500   27.5400   34.6900 C   0  0  0  0  0  0  0  0  0  0  0  0
   31.5100   27.1200   33.4000 C   0  0  0  0  0  0  0  0  0  0  0  0
   30.2200   26.6300   33.1100 C   0  0  0  0  0  0  0  0  0  0  0  0
   29.2400   26.6600   34.1000 C   0  0  0  0  0  0  0  0  0  0  0  0
   27.9300   26.2600   33.8100 C   0  0  0  0  0  0  0  0  0  0  0  0
   27.5200   25.7100   32.6100 N   0  0  0  0  0  0  0  0  0  0  0  0
   31.1581   28.0583   36.9644 N   0  0  0  0  0  0  0  0  0  0  0  0
   31.1226   27.1313   38.1011 C   0  0  0  0  0  0  0  0  0  0  0  0
   32.3351   27.3668   38.9969 C   0  0  0  0  0  0  0  0  0  0  0  0
   32.3891   28.7766   39.4058 N   0  0  0  0  0  0  0  0  0  0  0  0
   32.6576   29.1201   40.8070 C   0  0  0  0  0  0  0  0  0  0  0  0
   32.1385   29.8002   38.4124 C   0  0  0  0  0  0  0  0  0  0  0  0
   32.4823   31.1482   38.6408 C   0  0  0  0  0  0  0  0  0  0  0  0
   32.2264   32.1300   37.6660 C   0  0  0  0  0  0  0  0  0  0  0  0
   31.6212   31.7582   36.4642 C   0  0  0  0  0  0  0  0  0  0  0  0
   31.2728   30.4293   36.2251 C   0  0  0  0  0  0  0  0  0  0  0  0
   31.5311   29.4380   37.1894 C   0  0  0  0  0  0  0  0  0  0  0  0
   32.5556   33.4813   37.8527 O   0  0  0  0  0  0  0  0  0  0  0  0
   33.1728   34.0067   39.0234 C   0  0  0  0  0  0  0  0  0  0  0  0
   24.8908   26.7905   36.3050 H   0  0  0  0  0  0  0  0  0  0  0  0
   23.6981   25.8078   35.4227 H   0  0  0  0  0  0  0  0  0  0  0  0
   32.8513   27.8842   34.9170 H   0  0  0  0  0  0  0  0  0  0  0  0
   32.2642   27.1257   32.6237 H   0  0  0  0  0  0  0  0  0  0  0  0
   30.0101   26.3033   32.1004 H   0  0  0  0  0  0  0  0  0  0  0  0
   28.1316   25.0435   32.0893 H   0  0  0  0  0  0  0  0  0  0  0  0
   26.6941   26.1028   32.1054 H   0  0  0  0  0  0  0  0  0  0  0  0
   30.1914   27.2992   38.6840 H   0  0  0  0  0  0  0  0  0  0  0  0
   31.1327   26.0760   37.7487 H   0  0  0  0  0  0  0  0  0  0  0  0
   32.2743   26.6874   39.8742 H   0  0  0  0  0  0  0  0  0  0  0  0
   33.2594   27.1185   38.4317 H   0  0  0  0  0  0  0  0  0  0  0  0
   32.6943   28.2167   41.4511 H   0  0  0  0  0  0  0  0  0  0  0  0
   33.6389   29.6326   40.8878 H   0  0  0  0  0  0  0  0  0  0  0  0
   31.8548   29.7836   41.1923 H   0  0  0  0  0  0  0  0  0  0  0  0
   32.9536   31.4329   39.5690 H   0  0  0  0  0  0  0  0  0  0  0  0
   31.4148   32.5074   35.7102 H   0  0  0  0  0  0  0  0  0  0  0  0
   30.7889   30.1826   35.2894 H   0  0  0  0  0  0  0  0  0  0  0  0
   34.1662   33.5344   39.1762 H   0  0  0  0  0  0  0  0  0  0  0  0
   33.3149   35.0997   38.8987 H   0  0  0  0  0  0  0  0  0  0  0  0
   32.5250   33.8313   39.9082 H   0  0  0  0  0  0  0  0  0  0  0  0
  1  2  1  0
  2  3  2  0
  2  4  1  0
  4  5  2  0
  5  6  1  0
  6  7  2  0
  7  8  1  0
  8  9  2  0
  9 10  1  0
 10 11  2  0
 11 12  1  0
 12 13  2  0
 13 14  1  0
  8 15  1  0
 15 16  1  0
 16 17  1  0
 17 18  1  0
 18 19  1  0
 18 20  1  0
 20 21  2  0
 21 22  1  0
 22 23  2  0
 23 24  1  0
 24 25  2  0
 22 26  1  0
 26 27  1  0
 13  4  1  0
 25 15  1  0
 12  7  1  0
 25 20  1  0
  1 28  1  0
  1 29  1  0
  9 30  1  0
 10 31  1  0
 11 32  1  0
 14 33  1  0
 14 34  1  0
 16 35  1  0
 16 36  1  0
 17 37  1  0
 17 38  1  0
 19 39  1  0
 19 40  1  0
 19 41  1  0
 21 42  1  0
 23 43  1  0
 24 44  1  0
 27 45  1  0
 27 46  1  0
 27 47  1  0
M  END
$$$$
confid_7
     RDKit          3D

 47 50  0  0  0  0  0  0  0  0999 V2000
   24.6900   26.1200   35.5300 N   0  0  0  0  0  0  0  0  0  0  0  0
   25.6600   25.6700   34.6600 C   0  0  0  0  0  0  0  0  0  0  0  0
   25.2400   25.0100   33.7200 O   0  0  0  0  0  0  0  0  0  0  0  0
   27.0300   26.2200   34.8800 C   0  0  0  0  0  0  0  0  0  0  0  0
   27.3500   26.7300   36.0700 N   0  0  0  0  0  0  0  0  0  0  0  0
   28.5700   27.1800   36.3300 N   0  0  0  0  0  0  0  0  0  0  0  0
   29.5300   27.1100   35.3900 C   0  0  0  0  0  0  0  0  0  0  0  0
   30.8300   27.5700   35.6500 C   0  0  0  0  0  0  0  0  0  0  0  0
   31.8500   27.5400   34.6900 C   0  0  0  0  0  0  0  0  0  0  0  0
   31.5100   27.1200   33.4000 C   0  0  0  0  0  0  0  0  0  0  0  0
   30.2200   26.6300   33.1100 C   0  0  0  0  0  0  0  0  0  0  0  0
   29.2400   26.6600   34.1000 C   0  0  0  0  0  0  0  0  0  0  0  0
   27.9300   26.2600   33.8100 C   0  0  0  0  0  0  0  0  0  0  0  0
   27.5200   25.7100   32.6100 N   0  0  0  0  0  0  0  0  0  0  0  0
   31.1506   28.0395   36.9698 N   0  0  0  0  0  0  0  0  0  0  0  0
   31.3130   29.4804   37.1810 C   0  0  0  0  0  0  0  0  0  0  0  0
   30.7692   29.8680   38.5536 C   0  0  0  0  0  0  0  0  0  0  0  0
   31.4061   29.0496   39.5943 N   0  0  0  0  0  0  0  0  0  0  0  0
   31.9378   29.6831   40.8062 C   0  0  0  0  0  0  0  0  0  0  0  0
   31.5312   27.6276   39.3732 C   0  0  0  0  0  0  0  0  0  0  0  0
   31.7786   26.7358   40.4378 C   0  0  0  0  0  0  0  0  0  0  0  0
   31.9025   25.3547   40.2022 C   0  0  0  0  0  0  0  0  0  0  0  0
   31.7793   24.8718   38.8985 C   0  0  0  0  0  0  0  0  0  0  0  0
   31.5276   25.7427   37.8359 C   0  0  0  0  0  0  0  0  0  0  0  0
   31.4003   27.1238   38.0599 C   0  0  0  0  0  0  0  0  0  0  0  0
   32.1544   24.4337   41.2300 O   0  0  0  0  0  0  0  0  0  0  0  0
   32.1432   24.7491   42.6190 C   0  0  0  0  0  0  0  0  0  0  0  0
   24.8928   26.7836   36.3116 H   0  0  0  0  0  0  0  0  0  0  0  0
   23.6953   25.8165   35.4157 H   0  0  0  0  0  0  0  0  0  0  0  0
   32.8517   27.8815   34.9188 H   0  0  0  0  0  0  0  0  0  0  0  0
   32.2645   27.1248   32.6239 H   0  0  0  0  0  0  0  0  0  0  0  0
   30.0101   26.3031   32.1005 H   0  0  0  0  0  0  0  0  0  0  0  0
   28.1324   25.0456   32.0876 H   0  0  0  0  0  0  0  0  0  0  0  0
   26.6934   26.1015   32.1060 H   0  0  0  0  0  0  0  0  0  0  0  0
   32.3916   29.7421   37.1165 H   0  0  0  0  0  0  0  0  0  0  0  0
   30.7630   30.0527   36.4018 H   0  0  0  0  0  0  0  0  0  0  0  0
   30.9449   30.9531   38.7191 H   0  0  0  0  0  0  0  0  0  0  0  0
   29.6710   29.6903   38.5745 H   0  0  0  0  0  0  0  0  0  0  0  0
   31.8726   30.7923   40.7488 H   0  0  0  0  0  0  0  0  0  0  0  0
   31.3555   29.3537   41.6927 H   0  0  0  0  0  0  0  0  0  0  0  0
   33.0086   29.4079   40.9377 H   0  0  0  0  0  0  0  0  0  0  0  0
   31.8727   27.1110   41.4452 H   0  0  0  0  0  0  0  0  0  0  0  0
   31.8753   23.8102   38.7076 H   0  0  0  0  0  0  0  0  0  0  0  0
   31.4417   25.3286   36.8399 H   0  0  0  0  0  0  0  0  0  0  0  0
   31.1561   25.1732   42.9066 H   0  0  0  0  0  0  0  0  0  0  0  0
   32.3159   23.8198   43.2026 H   0  0  0  0  0  0  0  0  0  0  0  0
   32.9574   25.4713   42.8534 H   0  0  0  0  0  0  0  0  0  0  0  0
  1  2  1  0
  2  3  2  0
  2  4  1  0
  4  5  2  0
  5  6  1  0
  6  7  2  0
  7  8  1  0
  8  9  2  0
  9 10  1  0
 10 11  2  0
 11 12  1  0
 12 13  2  0
 13 14  1  0
  8 15  1  0
 15 16  1  0
 16 17  1  0
 17 18  1  0
 18 19  1  0
 18 20  1  0
 20 21  2  0
 21 22  1  0
 22 23  2  0
 23 24  1  0
 24 25  2  0
 22 26  1  0
 26 27  1  0
 13  4  1  0
 25 15  1  0
 12  7  1  0
 25 20  1  0
  1 28  1  0
  1 29  1  0
  9 30  1  0
 10 31  1  0
 11 32  1  0
 14 33  1  0
 14 34  1  0
 16 35  1  0
 16 36  1  0
 17 37  1  0
 17 38  1  0
 19 39  1  0
 19 40  1  0
 19 41  1  0
 21 42  1  0
 23 43  1  0
 24 44  1  0
 27 45  1  0
 27 46  1  0
 27 47  1  0
M  END
$$$$
confid_8
     RDKit          3D

 47 50  0  0  0  0  0  0  0  0999 V2000
   24.6900   26.1200   35.5300 N   0  0  0  0  0  0  0  0  0  0  0  0
   25.6600   25.6700   34.6600 C   0  0  0  0  0  0  0  0  0  0  0  0
   25.2400   25.0100   33.7200 O   0  0  0  0  0  0  0  0  0  0  0  0
   27.0300   26.2200   34.8800 C   0  0  0  0  0  0  0  0  0  0  0  0
   27.3500   26.7300   36.0700 N   0  0  0  0  0  0  0  0  0  0  0  0
   28.5700   27.1800   36.3300 N   0  0  0  0  0  0  0  0  0  0  0  0
   29.5300   27.1100   35.3900 C   0  0  0  0  0  0  0  0  0  0  0  0
   30.8300   27.5700   35.6500 C   0  0  0  0  0  0  0  0  0  0  0  0
   31.8500   27.5400   34.6900 C   0  0  0  0  0  0  0  0  0  0  0  0
   31.5100   27.1200   33.4000 C   0  0  0  0  0  0  0  0  0  0  0  0
   30.2200   26.6300   33.1100 C   0  0  0  0  0  0  0  0  0  0  0  0
   29.2400   26.6600   34.1000 C   0  0  0  0  0  0  0  0  0  0  0  0
   27.9300   26.2600   33.8100 C   0  0  0  0  0  0  0  0  0  0  0  0
   27.5200   25.7100   32.6100 N   0  0  0  0  0  0  0  0  0  0  0  0
   31.1478   28.0705   36.9620 N   0  0  0  0  0  0  0  0  0  0  0  0
   32.1336   27.3496   37.7736 C   0  0  0  0  0  0  0  0  0  0  0  0
   31.6986   27.3511   39.2361 C   0  0  0  0  0  0  0  0  0  0  0  0
   31.4750   28.7295   39.6915 N   0  0  0  0  0  0  0  0  0  0  0  0
   32.0067   29.1643   40.9882 C   0  0  0  0  0  0  0  0  0  0  0  0
   30.7581   29.6423   38.8252 C   0  0  0  0  0  0  0  0  0  0  0  0
   30.2305   30.8562   39.3105 C   0  0  0  0  0  0  0  0  0  0  0  0
   29.5437   31.7351   38.4530 C   0  0  0  0  0  0  0  0  0  0  0  0
   29.3918   31.3969   37.1073 C   0  0  0  0  0  0  0  0  0  0  0  0
   29.9109   30.2014   36.6119 C   0  0  0  0  0  0  0  0  0  0  0  0
   30.5916   29.3100   37.4620 C   0  0  0  0  0  0  0  0  0  0  0  0
   29.0007   32.9505   38.8969 O   0  0  0  0  0  0  0  0  0  0  0  0
   29.0782   33.4270   40.2365 C   0  0  0  0  0  0  0  0  0  0  0  0
   23.6982   25.8077   35.4228 H   0  0  0  0  0  0  0  0  0  0  0  0
   24.8908   26.7907   36.3049 H   0  0  0  0  0  0  0  0  0  0  0  0
   32.8497   27.8902   34.9143 H   0  0  0  0  0  0  0  0  0  0  0  0
   32.2652   27.1218   32.6247 H   0  0  0  0  0  0  0  0  0  0  0  0
   30.0113   26.2787   32.1078 H   0  0  0  0  0  0  0  0  0  0  0  0
   27.6977   26.2230   31.7183 H   0  0  0  0  0  0  0  0  0  0  0  0
   27.3415   24.6831   32.5416 H   0  0  0  0  0  0  0  0  0  0  0  0
   33.1237   27.8452   37.6760 H   0  0  0  0  0  0  0  0  0  0  0  0
   32.2305   26.2964   37.4282 H   0  0  0  0  0  0  0  0  0  0  0  0
   32.4743   26.8388   39.8448 H   0  0  0  0  0  0  0  0  0  0  0  0
   30.7501   26.7798   39.3344 H   0  0  0  0  0  0  0  0  0  0  0  0
   32.6380   28.3805   41.4565 H   0  0  0  0  0  0  0  0  0  0  0  0
   32.6315   30.0725   40.8535 H   0  0  0  0  0  0  0  0  0  0  0  0
   31.1701   29.3843   41.6838 H   0  0  0  0  0  0  0  0  0  0  0  0
   30.3463   31.1145   40.3519 H   0  0  0  0  0  0  0  0  0  0  0  0
   28.8698   32.0693   36.4382 H   0  0  0  0  0  0  0  0  0  0  0  0
   29.7859   29.9826   35.5598 H   0  0  0  0  0  0  0  0  0  0  0  0
   30.1400   33.5584   40.5343 H   0  0  0  0  0  0  0  0  0  0  0  0
   28.5724   32.7169   40.9244 H   0  0  0  0  0  0  0  0  0  0  0  0
   28.5671   34.4093   40.3018 H   0  0  0  0  0  0  0  0  0  0  0  0
  1  2  1  0
  2  3  2  0
  2  4  1  0
  4  5  2  0
  5  6  1  0
  6  7  2  0
  7  8  1  0
  8  9  2  0
  9 10  1  0
 10 11  2  0
 11 12  1  0
 12 13  2  0
 13 14  1  0
  8 15  1  0
 15 16  1  0
 16 17  1  0
 17 18  1  0
 18 19  1  0
 18 20  1  0
 20 21  2  0
 21 22  1  0
 22 23  2  0
 23 24  1  0
 24 25  2  0
 22 26  1  0
 26 27  1  0
 13  4  1  0
 25 15  1  0
 12  7  1  0
 25 20  1  0
  1 28  1  0
  1 29  1  0
  9 30  1  0
 10 31  1  0
 11 32  1  0
 14 33  1  0
 14 34  1  0
 16 35  1  0
 16 36  1  0
 17 37  1  0
 17 38  1  0
 19 39  1  0
 19 40  1  0
 19 41  1  0
 21 42  1  0
 23 43  1  0
 24 44  1  0
 27 45  1  0
 27 46  1  0
 27 47  1  0
M  END
$$$$
