confid_0
     RDKit          3D

 44 47  0  0  0  0  0  0  0  0999 V2000
   24.4800   26.1000   36.1300 N   0  0  0  0  0  0  0  0  0  0  0  0
   25.2500   26.2500   34.9900 C   0  0  0  0  0  0  0  0  0  0  0  0
   24.7400   25.7600   33.9900 O   0  0  0  0  0  0  0  0  0  0  0  0
   26.5900   26.8900   34.9600 C   0  0  0  0  0  0  0  0  0  0  0  0
   27.0600   27.2400   36.1600 N   0  0  0  0  0  0  0  0  0  0  0  0
   28.3000   27.7100   36.2400 N   0  0  0  0  0  0  0  0  0  0  0  0
   29.0500   27.9600   35.1500 C   0  0  0  0  0  0  0  0  0  0  0  0
   30.3400   28.4900   35.2600 C   0  0  0  0  0  0  0  0  0  0  0  0
   31.1100   28.8200   34.1400 C   0  0  0  0  0  0  0  0  0  0  0  0
   30.5200   28.6700   32.8800 C   0  0  0  0  0  0  0  0  0  0  0  0
   29.2900   28.0200   32.7700 C   0  0  0  0  0  0  0  0  0  0  0  0
   28.5200   27.7100   33.8900 C   0  0  0  0  0  0  0  0  0  0  0  0
   27.2700   27.0800   33.7600 C   0  0  0  0  0  0  0  0  0  0  0  0
   26.7500   26.8800   32.4900 N   0  0  0  0  0  0  0  0  0  0  0  0
   23.5011   25.0583   36.3305 C   0  0  0  0  0  0  0  0  0  0  0  0
   23.5526   23.9248   35.5784 N   0  0  0  0  0  0  0  0  0  0  0  0
   22.6714   22.9052   35.7359 C   0  0  0  0  0  0  0  0  0  0  0  0
   21.6651   22.9807   36.7096 C   0  0  0  0  0  0  0  0  0  0  0  0
   20.6081   21.9075   36.7858 C   0  0  0  0  0  0  0  0  0  0  0  0
   20.6074   21.2609   38.1166 N   0  0  0  0  0  0  0  0  0  0  0  0
   20.0961   19.8834   38.0068 C   0  0  0  0  0  0  0  0  0  0  0  0
   19.7795   22.0186   39.0793 C   0  0  0  0  0  0  0  0  0  0  0  0
   20.5113   23.2635   39.5734 C   0  0  0  0  0  0  0  0  0  0  0  0
   20.6541   24.2381   38.5449 O   0  0  0  0  0  0  0  0  0  0  0  0
   21.6062   24.1238   37.5278 C   0  0  0  0  0  0  0  0  0  0  0  0
   22.5124   25.1760   37.3265 C   0  0  0  0  0  0  0  0  0  0  0  0
   22.3898   26.6195   38.3313 Cl  0  0  0  0  0  0  0  0  0  0  0  0
   24.6611   26.7634   36.9153 H   0  0  0  0  0  0  0  0  0  0  0  0
   30.7580   28.6629   36.2441 H   0  0  0  0  0  0  0  0  0  0  0  0
   32.0983   29.2479   34.2470 H   0  0  0  0  0  0  0  0  0  0  0  0
   31.0669   28.9543   31.9901 H   0  0  0  0  0  0  0  0  0  0  0  0
   28.9258   27.8587   31.7656 H   0  0  0  0  0  0  0  0  0  0  0  0
   25.7673   27.1503   32.2658 H   0  0  0  0  0  0  0  0  0  0  0  0
   27.2969   26.3786   31.7554 H   0  0  0  0  0  0  0  0  0  0  0  0
   22.7493   22.0423   35.0871 H   0  0  0  0  0  0  0  0  0  0  0  0
   19.6166   22.3500   36.5401 H   0  0  0  0  0  0  0  0  0  0  0  0
   20.8027   21.1576   35.9850 H   0  0  0  0  0  0  0  0  0  0  0  0
   20.1227   19.3798   38.9972 H   0  0  0  0  0  0  0  0  0  0  0  0
   19.0529   19.8729   37.6183 H   0  0  0  0  0  0  0  0  0  0  0  0
   20.7446   19.2849   37.3311 H   0  0  0  0  0  0  0  0  0  0  0  0
   19.5732   21.3978   39.9805 H   0  0  0  0  0  0  0  0  0  0  0  0
   18.7924   22.2983   38.6465 H   0  0  0  0  0  0  0  0  0  0  0  0
   19.9215   23.7157   40.3986 H   0  0  0  0  0  0  0  0  0  0  0  0
   21.5091   22.9889   39.9811 H   0  0  0  0  0  0  0  0  0  0  0  0
  1  2  1  0
  2  3  2  0
  2  4  1  0
  4  5  2  0
  5  6  1  0
  6  7  2  0
  7  8  1  0
  8  9  2  0
  9 10  1  0
 10 11  2  0
 11 12  1  0
 12 13  2  0
 13 14  1  0
  1 15  1  0
 15 16  2  0
 16 17  1  0
 17 18  2  0
 18 19  1  0
 19 20  1  0
 20 21  1  0
 20 22  1  0
 22 23  1  0
 23 24  1  0
 24 25  1  0
 25 26  2  0
 26 27  1  0
 13  4  1  0
 26 15  1  0
 12  7  1  0
 25 18  1  0
  1 28  1  0
  8 29  1  0
  9 30  1  0
 10 31  1  0
 11 32  1  0
 14 33  1  0
 14 34  1  0
 17 35  1  0
 19 36  1  0
 19 37  1  0
 21 38  1  0
 21 39  1  0
 21 40  1  0
 22 41  1  0
 22 42  1  0
 23 43  1  0
 23 44  1  0
M  END
$$$$
confid_1
     RDKit          3D

 44 47  0  0  0  0  0  0  0  0999 V2000
   24.4800   26.1000   36.1300 N   0  0  0  0  0  0  0  0  0  0  0  0
   25.2500   26.2500   34.9900 C   0  0  0  0  0  0  0  0  0  0  0  0
   24.7400   25.7600   33.9900 O   0  0  0  0  0  0  0  0  0  0  0  0
   26.5900   26.8900   34.9600 C   0  0  0  0  0  0  0  0  0  0  0  0
   27.0600   27.2400   36.1600 N   0  0  0  0  0  0  0  0  0  0  0  0
   28.3000   27.7100   36.2400 N   0  0  0  0  0  0  0  0  0  0  0  0
   29.0500   27.9600   35.1500 C   0  0  0  0  0  0  0  0  0  0  0  0
   30.3400   28.4900   35.2600 C   0  0  0  0  0  0  0  0  0  0  0  0
   31.1100   28.8200   34.1400 C   0  0  0  0  0  0  0  0  0  0  0  0
   30.5200   28.6700   32.8800 C   0  0  0  0  0  0  0  0  0  0  0  0
   29.2900   28.0200   32.7700 C   0  0  0  0  0  0  0  0  0  0  0  0
   28.5200   27.7100   33.8900 C   0  0  0  0  0  0  0  0  0  0  0  0
   27.2700   27.0800   33.7600 C   0  0  0  0  0  0  0  0  0  0  0  0
   26.7500   26.8800   32.4900 N   0  0  0  0  0  0  0  0  0  0  0  0
   23.0419   25.9785   36.1340 C   0  0  0  0  0  0  0  0  0  0  0  0
   22.3238   26.3839   35.0507 N   0  0  0  0  0  0  0  0  0  0  0  0
   20.9696   26.3113   35.0059 C   0  0  0  0  0  0  0  0  0  0  0  0
   20.2495   25.8198   36.1029 C   0  0  0  0  0  0  0  0  0  0  0  0
   18.7537   25.6245   35.9937 C   0  0  0  0  0  0  0  0  0  0  0  0
   17.9825   26.3659   37.0094 N   0  0  0  0  0  0  0  0  0  0  0  0
   18.2639   27.8109   37.0373 C   0  0  0  0  0  0  0  0  0  0  0  0
   17.9607   25.7243   38.3387 C   0  0  0  0  0  0  0  0  0  0  0  0
   19.3104   25.7384   39.0652 C   0  0  0  0  0  0  0  0  0  0  0  0
   20.2901   24.9602   38.3860 O   0  0  0  0  0  0  0  0  0  0  0  0
   20.9582   25.4219   37.2496 C   0  0  0  0  0  0  0  0  0  0  0  0
   22.3599   25.4821   37.2621 C   0  0  0  0  0  0  0  0  0  0  0  0
   23.2304   24.9354   38.6943 Cl  0  0  0  0  0  0  0  0  0  0  0  0
   24.9722   26.1350   37.0496 H   0  0  0  0  0  0  0  0  0  0  0  0
   30.7582   28.6623   36.2441 H   0  0  0  0  0  0  0  0  0  0  0  0
   32.0994   29.2455   34.2469 H   0  0  0  0  0  0  0  0  0  0  0  0
   31.0715   28.9442   31.9898 H   0  0  0  0  0  0  0  0  0  0  0  0
   28.9437   27.8129   31.7669 H   0  0  0  0  0  0  0  0  0  0  0  0
   26.7155   27.6567   31.7927 H   0  0  0  0  0  0  0  0  0  0  0  0
   26.3616   25.9529   32.2110 H   0  0  0  0  0  0  0  0  0  0  0  0
   20.4574   26.6258   34.1058 H   0  0  0  0  0  0  0  0  0  0  0  0
   18.3949   25.9380   34.9890 H   0  0  0  0  0  0  0  0  0  0  0  0
   18.5299   24.5373   36.0604 H   0  0  0  0  0  0  0  0  0  0  0  0
   19.3168   28.0204   37.3192 H   0  0  0  0  0  0  0  0  0  0  0  0
   18.0734   28.2490   36.0346 H   0  0  0  0  0  0  0  0  0  0  0  0
   17.5889   28.3189   37.7587 H   0  0  0  0  0  0  0  0  0  0  0  0
   17.2104   26.2393   38.9775 H   0  0  0  0  0  0  0  0  0  0  0  0
   17.6119   24.6730   38.2412 H   0  0  0  0  0  0  0  0  0  0  0  0
   19.6793   26.7738   39.2221 H   0  0  0  0  0  0  0  0  0  0  0  0
   19.1615   25.2952   40.0724 H   0  0  0  0  0  0  0  0  0  0  0  0
  1  2  1  0
  2  3  2  0
  2  4  1  0
  4  5  2  0
  5  6  1  0
  6  7  2  0
  7  8  1  0
  8  9  2  0
  9 10  1  0
 10 11  2  0
 11 12  1  0
 12 13  2  0
 13 14  1  0
  1 15  1  0
 15 16  2  0
 16 17  1  0
 17 18  2  0
 18 19  1  0
 19 20  1  0
 20 21  1  0
 20 22  1  0
 22 23  1  0
 23 24  1  0
 24 25  1  0
 25 26  2  0
 26 27  1  0
 13  4  1  0
 26 15  1  0
 12  7  1  0
 25 18  1  0
  1 28  1  0
  8 29  1  0
  9 30  1  0
 10 31  1  0
 11 32  1  0
 14 33  1  0
 14 34  1  0
 17 35  1  0
 19 36  1  0
 19 37  1  0
 21 38  1  0
 21 39  1  0
 21 40  1  0
 22 41  1  0
 22 42  1  0
 23 43  1  0
 23 44  1  0
M  END
$$$$
confid_2
     RDKit          3D

 44 47  0  0  0  0  0  0  0  0999 V2000
   24.4800   26.1000   36.1300 N   0  0  0  0  0  0  0  0  0  0  0  0
   25.2500   26.2500   34.9900 C   0  0  0  0  0  0  0  0  0  0  0  0
   24.7400   25.7600   33.9900 O   0  0  0  0  0  0  0  0  0  0  0  0
   26.5900   26.8900   34.9600 C   0  0  0  0  0  0  0  0  0  0  0  0
   27.0600   27.2400   36.1600 N   0  0  0  0  0  0  0  0  0  0  0  0
   28.3000   27.7100   36.2400 N   0  0  0  0  0  0  0  0  0  0  0  0
   29.0500   27.9600   35.1500 C   0  0  0  0  0  0  0  0  0  0  0  0
   30.3400   28.4900   35.2600 C   0  0  0  0  0  0  0  0  0  0  0  0
   31.1100   28.8200   34.1400 C   0  0  0  0  0  0  0  0  0  0  0  0
   30.5200   28.6700   32.8800 C   0  0  0  0  0  0  0  0  0  0  0  0
   29.2900   28.0200   32.7700 C   0  0  0  0  0  0  0  0  0  0  0  0
   28.5200   27.7100   33.8900 C   0  0  0  0  0  0  0  0  0  0  0  0
   27.2700   27.0800   33.7600 C   0  0  0  0  0  0  0  0  0  0  0  0
   26.7500   26.8800   32.4900 N   0  0  0  0  0  0  0  0  0  0  0  0
   23.5019   25.0576   36.3306 C   0  0  0  0  0  0  0  0  0  0  0  0
   23.5560   23.9239   35.5810 N   0  0  0  0  0  0  0  0  0  0  0  0
   22.6771   22.9030   35.7393 C   0  0  0  0  0  0  0  0  0  0  0  0
   21.6667   22.9714   36.7083 C   0  0  0  0  0  0  0  0  0  0  0  0
   20.6636   21.8304   36.7466 C   0  0  0  0  0  0  0  0  0  0  0  0
   19.6510   21.9403   37.8179 N   0  0  0  0  0  0  0  0  0  0  0  0
   18.6790   20.8413   37.6937 C   0  0  0  0  0  0  0  0  0  0  0  0
   20.2850   21.9230   39.1522 C   0  0  0  0  0  0  0  0  0  0  0  0
   20.5237   23.3566   39.6233 C   0  0  0  0  0  0  0  0  0  0  0  0
   20.6415   24.2641   38.5303 O   0  0  0  0  0  0  0  0  0  0  0  0
   21.6024   24.1250   37.5252 C   0  0  0  0  0  0  0  0  0  0  0  0
   22.5110   25.1759   37.3230 C   0  0  0  0  0  0  0  0  0  0  0  0
   22.3838   26.6252   38.3197 Cl  0  0  0  0  0  0  0  0  0  0  0  0
   24.6612   26.7632   36.9154 H   0  0  0  0  0  0  0  0  0  0  0  0
   30.7582   28.6623   36.2441 H   0  0  0  0  0  0  0  0  0  0  0  0
   32.0994   29.2455   34.2469 H   0  0  0  0  0  0  0  0  0  0  0  0
   31.0716   28.9442   31.9898 H   0  0  0  0  0  0  0  0  0  0  0  0
   28.9437   27.8129   31.7669 H   0  0  0  0  0  0  0  0  0  0  0  0
   26.3617   25.9528   32.2110 H   0  0  0  0  0  0  0  0  0  0  0  0
   26.7156   27.6566   31.7926 H   0  0  0  0  0  0  0  0  0  0  0  0
   22.7586   22.0367   35.0948 H   0  0  0  0  0  0  0  0  0  0  0  0
   21.2165   20.8665   36.8349 H   0  0  0  0  0  0  0  0  0  0  0  0
   20.1482   21.8230   35.7603 H   0  0  0  0  0  0  0  0  0  0  0  0
   17.8661   20.9657   38.4412 H   0  0  0  0  0  0  0  0  0  0  0  0
   19.1682   19.8533   37.8469 H   0  0  0  0  0  0  0  0  0  0  0  0
   18.2000   20.8593   36.6910 H   0  0  0  0  0  0  0  0  0  0  0  0
   21.2494   21.3646   39.1423 H   0  0  0  0  0  0  0  0  0  0  0  0
   19.6434   21.4208   39.9126 H   0  0  0  0  0  0  0  0  0  0  0  0
   19.6672   23.6844   40.2501 H   0  0  0  0  0  0  0  0  0  0  0  0
   21.4410   23.4038   40.2493 H   0  0  0  0  0  0  0  0  0  0  0  0
  1  2  1  0
  2  3  2  0
  2  4  1  0
  4  5  2  0
  5  6  1  0
  6  7  2  0
  7  8  1  0
  8  9  2  0
  9 10  1  0
 10 11  2  0
 11 12  1  0
 12 13  2  0
 13 14  1  0
  1 15  1  0
 15 16  2  0
 16 17  1  0
 17 18  2  0
 18 19  1  0
 19 20  1  0
 20 21  1  0
 20 22  1  0
 22 23  1  0
 23 24  1  0
 24 25  1  0
 25 26  2  0
 26 27  1  0
 13  4  1  0
 26 15  1  0
 12  7  1  0
 25 18  1  0
  1 28  1  0
  8 29  1  0
  9 30  1  0
 10 31  1  0
 11 32  1  0
 14 33  1  0
 14 34  1  0
 17 35  1  0
 19 36  1  0
 19 37  1  0
 21 38  1  0
 21 39  1  0
 21 40  1  0
 22 41  1  0
 22 42  1  0
 23 43  1  0
 23 44  1  0
M  END
$$$$
confid_3
     RDKit          3D

 44 47  0  0  0  0  0  0  0  0999 V2000
   24.4800   26.1000   36.1300 N   0  0  0  0  0  0  0  0  0  0  0  0
   25.2500   26.2500   34.9900 C   0  0  0  0  0  0  0  0  0  0  0  0
   24.7400   25.7600   33.9900 O   0  0  0  0  0  0  0  0  0  0  0  0
   26.5900   26.8900   34.9600 C   0  0  0  0  0  0  0  0  0  0  0  0
   27.0600   27.2400   36.1600 N   0  0  0  0  0  0  0  0  0  0  0  0
   28.3000   27.7100   36.2400 N   0  0  0  0  0  0  0  0  0  0  0  0
   29.0500   27.9600   35.1500 C   0  0  0  0  0  0  0  0  0  0  0  0
   30.3400   28.4900   35.2600 C   0  0  0  0  0  0  0  0  0  0  0  0
   31.1100   28.8200   34.1400 C   0  0  0  0  0  0  0  0  0  0  0  0
   30.5200   28.6700   32.8800 C   0  0  0  0  0  0  0  0  0  0  0  0
   29.2900   28.0200   32.7700 C   0  0  0  0  0  0  0  0  0  0  0  0
   28.5200   27.7100   33.8900 C   0  0  0  0  0  0  0  0  0  0  0  0
   27.2700   27.0800   33.7600 C   0  0  0  0  0  0  0  0  0  0  0  0
   26.7500   26.8800   32.4900 N   0  0  0  0  0  0  0  0  0  0  0  0
   23.0418   25.9791   36.1336 C   0  0  0  0  0  0  0  0  0  0  0  0
   22.3248   26.3889   35.0528 N   0  0  0  0  0  0  0  0  0  0  0  0
   20.9711   26.3181   35.0068 C   0  0  0  0  0  0  0  0  0  0  0  0
   20.2424   25.8219   36.0964 C   0  0  0  0  0  0  0  0  0  0  0  0
   18.7395   25.6810   35.9198 C   0  0  0  0  0  0  0  0  0  0  0  0
   18.0245   25.1942   37.1185 N   0  0  0  0  0  0  0  0  0  0  0  0
   16.6001   25.0008   36.7996 C   0  0  0  0  0  0  0  0  0  0  0  0
   18.1796   26.1338   38.2479 C   0  0  0  0  0  0  0  0  0  0  0  0
   19.3540   25.6943   39.1208 C   0  0  0  0  0  0  0  0  0  0  0  0
   20.3074   24.9306   38.3862 O   0  0  0  0  0  0  0  0  0  0  0  0
   20.9573   25.4152   37.2479 C   0  0  0  0  0  0  0  0  0  0  0  0
   22.3597   25.4781   37.2582 C   0  0  0  0  0  0  0  0  0  0  0  0
   23.2340   24.9212   38.6849 Cl  0  0  0  0  0  0  0  0  0  0  0  0
   24.9720   26.1355   37.0497 H   0  0  0  0  0  0  0  0  0  0  0  0
   30.7580   28.6629   36.2441 H   0  0  0  0  0  0  0  0  0  0  0  0
   32.0983   29.2479   34.2470 H   0  0  0  0  0  0  0  0  0  0  0  0
   31.0669   28.9543   31.9901 H   0  0  0  0  0  0  0  0  0  0  0  0
   28.9258   27.8587   31.7656 H   0  0  0  0  0  0  0  0  0  0  0  0
   27.2969   26.3788   31.7553 H   0  0  0  0  0  0  0  0  0  0  0  0
   25.7672   27.1502   32.2659 H   0  0  0  0  0  0  0  0  0  0  0  0
   20.4599   26.6387   34.1077 H   0  0  0  0  0  0  0  0  0  0  0  0
   18.3212   26.6607   35.5916 H   0  0  0  0  0  0  0  0  0  0  0  0
   18.5806   24.9612   35.0859 H   0  0  0  0  0  0  0  0  0  0  0  0
   16.1133   25.9660   36.5342 H   0  0  0  0  0  0  0  0  0  0  0  0
   16.4858   24.2899   35.9528 H   0  0  0  0  0  0  0  0  0  0  0  0
   16.0726   24.5532   37.6693 H   0  0  0  0  0  0  0  0  0  0  0  0
   17.2720   26.1633   38.8939 H   0  0  0  0  0  0  0  0  0  0  0  0
   18.3433   27.1781   37.8949 H   0  0  0  0  0  0  0  0  0  0  0  0
   19.8503   26.5832   39.5668 H   0  0  0  0  0  0  0  0  0  0  0  0
   18.9765   25.0625   39.9528 H   0  0  0  0  0  0  0  0  0  0  0  0
  1  2  1  0
  2  3  2  0
  2  4  1  0
  4  5  2  0
  5  6  1  0
  6  7  2  0
  7  8  1  0
  8  9  2  0
  9 10  1  0
 10 11  2  0
 11 12  1  0
 12 13  2  0
 13 14  1  0
  1 15  1  0
 15 16  2  0
 16 17  1  0
 17 18  2  0
 18 19  1  0
 19 20  1  0
 20 21  1  0
 20 22  1  0
 22 23  1  0
 23 24  1  0
 24 25  1  0
 25 26  2  0
 26 27  1  0
 13  4  1  0
 26 15  1  0
 12  7  1  0
 25 18  1  0
  1 28  1  0
  8 29  1  0
  9 30  1  0
 10 31  1  0
 11 32  1  0
 14 33  1  0
 14 34  1  0
 17 35  1  0
 19 36  1  0
 19 37  1  0
 21 38  1  0
 21 39  1  0
 21 40  1  0
 22 41  1  0
 22 42  1  0
 23 43  1  0
 23 44  1  0
M  END
$$$$
confid_4
     RDKit          3D

 44 47  0  0  0  0  0  0  0  0999 V2000
   24.4800   26.1000   36.1300 N   0  0  0  0  0  0  0  0  0  0  0  0
   25.2500   26.2500   34.9900 C   0  0  0  0  0  0  0  0  0  0  0  0
   24.7400   25.7600   33.9900 O   0  0  0  0  0  0  0  0  0  0  0  0
   26.5900   26.8900   34.9600 C   0  0  0  0  0  0  0  0  0  0  0  0
   27.0600   27.2400   36.1600 N   0  0  0  0  0  0  0  0  0  0  0  0
   28.3000   27.7100   36.2400 N   0  0  0  0  0  0  0  0  0  0  0  0
   29.0500   27.9600   35.1500 C   0  0  0  0  0  0  0  0  0  0  0  0
   30.3400   28.4900   35.2600 C   0  0  0  0  0  0  0  0  0  0  0  0
   31.1100   28.8200   34.1400 C   0  0  0  0  0  0  0  0  0  0  0  0
   30.5200   28.6700   32.8800 C   0  0  0  0  0  0  0  0  0  0  0  0
   29.2900   28.0200   32.7700 C   0  0  0  0  0  0  0  0  0  0  0  0
   28.5200   27.7100   33.8900 C   0  0  0  0  0  0  0  0  0  0  0  0
   27.2700   27.0800   33.7600 C   0  0  0  0  0  0  0  0  0  0  0  0
   26.7500   26.8800   32.4900 N   0  0  0  0  0  0  0  0  0  0  0  0
   23.5031   25.0568   36.3314 C   0  0  0  0  0  0  0  0  0  0  0  0
   23.5549   23.9236   35.5786 N   0  0  0  0  0  0  0  0  0  0  0  0
   22.6758   22.9024   35.7380 C   0  0  0  0  0  0  0  0  0  0  0  0
   21.6733   22.9761   36.7144 C   0  0  0  0  0  0  0  0  0  0  0  0
   20.6232   21.8908   36.7969 C   0  0  0  0  0  0  0  0  0  0  0  0
   20.5552   21.2295   38.1138 N   0  0  0  0  0  0  0  0  0  0  0  0
   21.8393   20.6723   38.5705 C   0  0  0  0  0  0  0  0  0  0  0  0
   19.8269   22.0007   39.1403 C   0  0  0  0  0  0  0  0  0  0  0  0
   20.5456   23.2758   39.5957 C   0  0  0  0  0  0  0  0  0  0  0  0
   20.6574   24.2296   38.5447 O   0  0  0  0  0  0  0  0  0  0  0  0
   21.6113   24.1188   37.5304 C   0  0  0  0  0  0  0  0  0  0  0  0
   22.5154   25.1726   37.3289 C   0  0  0  0  0  0  0  0  0  0  0  0
   22.3910   26.6154   38.3343 Cl  0  0  0  0  0  0  0  0  0  0  0  0
   24.6602   26.7642   36.9148 H   0  0  0  0  0  0  0  0  0  0  0  0
   30.7582   28.6623   36.2441 H   0  0  0  0  0  0  0  0  0  0  0  0
   32.0994   29.2455   34.2469 H   0  0  0  0  0  0  0  0  0  0  0  0
   31.0716   28.9442   31.9898 H   0  0  0  0  0  0  0  0  0  0  0  0
   28.9437   27.8129   31.7669 H   0  0  0  0  0  0  0  0  0  0  0  0
   26.3617   25.9528   32.2110 H   0  0  0  0  0  0  0  0  0  0  0  0
   26.7156   27.6566   31.7926 H   0  0  0  0  0  0  0  0  0  0  0  0
   22.7533   22.0383   35.0909 H   0  0  0  0  0  0  0  0  0  0  0  0
   19.6351   22.3297   36.5367 H   0  0  0  0  0  0  0  0  0  0  0  0
   20.8111   21.1112   36.0267 H   0  0  0  0  0  0  0  0  0  0  0  0
   22.6004   21.4651   38.7266 H   0  0  0  0  0  0  0  0  0  0  0  0
   22.2265   19.9557   37.8153 H   0  0  0  0  0  0  0  0  0  0  0  0
   21.6988   20.1145   39.5207 H   0  0  0  0  0  0  0  0  0  0  0  0
   19.6591   21.3535   40.0287 H   0  0  0  0  0  0  0  0  0  0  0  0
   18.8170   22.2692   38.7603 H   0  0  0  0  0  0  0  0  0  0  0  0
   21.5457   23.0510   40.0223 H   0  0  0  0  0  0  0  0  0  0  0  0
   19.9457   23.7346   40.4097 H   0  0  0  0  0  0  0  0  0  0  0  0
  1  2  1  0
  2  3  2  0
  2  4  1  0
  4  5  2  0
  5  6  1  0
  6  7  2  0
  7  8  1  0
  8  9  2  0
  9 10  1  0
 10 11  2  0
 11 12  1  0
 12 13  2  0
 13 14  1  0
  1 15  1  0
 15 16  2  0
 16 17  1  0
 17 18  2  0
 18 19  1  0
 19 20  1  0
 20 21  1  0
 20 22  1  0
 22 23  1  0
 23 24  1  0
 24 25  1  0
 25 26  2  0
 26 27  1  0
 13  4  1  0
 26 15  1  0
 12  7  1  0
 25 18  1  0
  1 28  1  0
  8 29  1  0
  9 30  1  0
 10 31  1  0
 11 32  1  0
 14 33  1  0
 14 34  1  0
 17 35  1  0
 19 36  1  0
 19 37  1  0
 21 38  1  0
 21 39  1  0
 21 40  1  0
 22 41  1  0
 22 42  1  0
 23 43  1  0
 23 44  1  0
M  END
$$$$
confid_5
     RDKit          3D

 44 47  0  0  0  0  0  0  0  0999 V2000
   24.4800   26.1000   36.1300 N   0  0  0  0  0  0  0  0  0  0  0  0
   25.2500   26.2500   34.9900 C   0  0  0  0  0  0  0  0  0  0  0  0
   24.7400   25.7600   33.9900 O   0  0  0  0  0  0  0  0  0  0  0  0
   26.5900   26.8900   34.9600 C   0  0  0  0  0  0  0  0  0  0  0  0
   27.0600   27.2400   36.1600 N   0  0  0  0  0  0  0  0  0  0  0  0
   28.3000   27.7100   36.2400 N   0  0  0  0  0  0  0  0  0  0  0  0
   29.0500   27.9600   35.1500 C   0  0  0  0  0  0  0  0  0  0  0  0
   30.3400   28.4900   35.2600 C   0  0  0  0  0  0  0  0  0  0  0  0
   31.1100   28.8200   34.1400 C   0  0  0  0  0  0  0  0  0  0  0  0
   30.5200   28.6700   32.8800 C   0  0  0  0  0  0  0  0  0  0  0  0
   29.2900   28.0200   32.7700 C   0  0  0  0  0  0  0  0  0  0  0  0
   28.5200   27.7100   33.8900 C   0  0  0  0  0  0  0  0  0  0  0  0
   27.2700   27.0800   33.7600 C   0  0  0  0  0  0  0  0  0  0  0  0
   26.7500   26.8800   32.4900 N   0  0  0  0  0  0  0  0  0  0  0  0
   23.0419   25.9770   36.1333 C   0  0  0  0  0  0  0  0  0  0  0  0
   22.3251   26.3909   35.0537 N   0  0  0  0  0  0  0  0  0  0  0  0
   20.9720   26.3179   35.0070 C   0  0  0  0  0  0  0  0  0  0  0  0
   20.2491   25.8117   36.0956 C   0  0  0  0  0  0  0  0  0  0  0  0
   18.7535   25.6322   35.9654 C   0  0  0  0  0  0  0  0  0  0  0  0
   17.9697   26.4967   36.8776 N   0  0  0  0  0  0  0  0  0  0  0  0
   17.8810   27.8718   36.3604 C   0  0  0  0  0  0  0  0  0  0  0  0
   18.4194   26.5019   38.2889 C   0  0  0  0  0  0  0  0  0  0  0  0
   18.9391   25.1353   38.7582 C   0  0  0  0  0  0  0  0  0  0  0  0
   20.3173   24.9596   38.4232 O   0  0  0  0  0  0  0  0  0  0  0  0
   20.9570   25.4066   37.2516 C   0  0  0  0  0  0  0  0  0  0  0  0
   22.3600   25.4744   37.2584 C   0  0  0  0  0  0  0  0  0  0  0  0
   23.2379   24.9267   38.6868 Cl  0  0  0  0  0  0  0  0  0  0  0  0
   24.9720   26.1367   37.0496 H   0  0  0  0  0  0  0  0  0  0  0  0
   30.7582   28.6623   36.2441 H   0  0  0  0  0  0  0  0  0  0  0  0
   32.0994   29.2455   34.2469 H   0  0  0  0  0  0  0  0  0  0  0  0
   31.0715   28.9442   31.9898 H   0  0  0  0  0  0  0  0  0  0  0  0
   28.9437   27.8129   31.7669 H   0  0  0  0  0  0  0  0  0  0  0  0
   26.3616   25.9529   32.2110 H   0  0  0  0  0  0  0  0  0  0  0  0
   26.7155   27.6567   31.7927 H   0  0  0  0  0  0  0  0  0  0  0  0
   20.4617   26.6439   34.1098 H   0  0  0  0  0  0  0  0  0  0  0  0
   18.5007   24.5670   36.1449 H   0  0  0  0  0  0  0  0  0  0  0  0
   18.4281   25.8025   34.9144 H   0  0  0  0  0  0  0  0  0  0  0  0
   18.8898   28.3329   36.2752 H   0  0  0  0  0  0  0  0  0  0  0  0
   17.2535   28.4958   37.0331 H   0  0  0  0  0  0  0  0  0  0  0  0
   17.3945   27.8754   35.3615 H   0  0  0  0  0  0  0  0  0  0  0  0
   17.5517   26.7791   38.9263 H   0  0  0  0  0  0  0  0  0  0  0  0
   19.2105   27.2676   38.4611 H   0  0  0  0  0  0  0  0  0  0  0  0
   18.3277   24.3019   38.3545 H   0  0  0  0  0  0  0  0  0  0  0  0
   18.8527   25.0828   39.8641 H   0  0  0  0  0  0  0  0  0  0  0  0
  1  2  1  0
  2  3  2  0
  2  4  1  0
  4  5  2  0
  5  6  1  0
  6  7  2  0
  7  8  1  0
  8  9  2  0
  9 10  1  0
 10 11  2  0
 11 12  1  0
 12 13  2  0
 13 14  1  0
  1 15  1  0
 15 16  2  0
 16 17  1  0
 17 18  2  0
 18 19  1  0
 19 20  1  0
 20 21  1  0
 20 22  1  0
 22 23  1  0
 23 24  1  0
 24 25  1  0
 25 26  2  0
 26 27  1  0
 13  4  1  0
 26 15  1  0
 12  7  1  0
 25 18  1  0
  1 28  1  0
  8 29  1  0
  9 30  1  0
 10 31  1  0
 11 32  1  0
 14 33  1  0
 14 34  1  0
 17 35  1  0
 19 36  1  0
 19 37  1  0
 21 38  1  0
 21 39  1  0
 21 40  1  0
 22 41  1  0
 22 42  1  0
 23 43  1  0
 23 44  1  0
M  END
$$$$
confid_6
     RDKit          3D

 44 47  0  0  0  0  0  0  0  0999 V2000
   24.4800   26.1000   36.1300 N   0  0  0  0  0  0  0  0  0  0  0  0
   25.2500   26.2500   34.9900 C   0  0  0  0  0  0  0  0  0  0  0  0
   24.7400   25.7600   33.9900 O   0  0  0  0  0  0  0  0  0  0  0  0
   26.5900   26.8900   34.9600 C   0  0  0  0  0  0  0  0  0  0  0  0
   27.0600   27.2400   36.1600 N   0  0  0  0  0  0  0  0  0  0  0  0
   28.3000   27.7100   36.2400 N   0  0  0  0  0  0  0  0  0  0  0  0
   29.0500   27.9600   35.1500 C   0  0  0  0  0  0  0  0  0  0  0  0
   30.3400   28.4900   35.2600 C   0  0  0  0  0  0  0  0  0  0  0  0
   31.1100   28.8200   34.1400 C   0  0  0  0  0  0  0  0  0  0  0  0
   30.5200   28.6700   32.8800 C   0  0  0  0  0  0  0  0  0  0  0  0
   29.2900   28.0200   32.7700 C   0  0  0  0  0  0  0  0  0  0  0  0
   28.5200   27.7100   33.8900 C   0  0  0  0  0  0  0  0  0  0  0  0
   27.2700   27.0800   33.7600 C   0  0  0  0  0  0  0  0  0  0  0  0
   26.7500   26.8800   32.4900 N   0  0  0  0  0  0  0  0  0  0  0  0
   23.0420   25.9772   36.1339 C   0  0  0  0  0  0  0  0  0  0  0  0
   22.3236   26.3833   35.0513 N   0  0  0  0  0  0  0  0  0  0  0  0
   20.9696   26.3089   35.0054 C   0  0  0  0  0  0  0  0  0  0  0  0
   20.2485   25.8134   36.1012 C   0  0  0  0  0  0  0  0  0  0  0  0
   18.7587   25.6055   35.9912 C   0  0  0  0  0  0  0  0  0  0  0  0
   18.0385   26.3961   37.0136 N   0  0  0  0  0  0  0  0  0  0  0  0
   16.6798   26.7133   36.5399 C   0  0  0  0  0  0  0  0  0  0  0  0
   17.9551   25.6640   38.2954 C   0  0  0  0  0  0  0  0  0  0  0  0
   19.2831   25.7161   39.0459 C   0  0  0  0  0  0  0  0  0  0  0  0
   20.2935   24.9570   38.3895 O   0  0  0  0  0  0  0  0  0  0  0  0
   20.9587   25.4177   37.2496 C   0  0  0  0  0  0  0  0  0  0  0  0
   22.3604   25.4792   37.2614 C   0  0  0  0  0  0  0  0  0  0  0  0
   23.2322   24.9326   38.6930 Cl  0  0  0  0  0  0  0  0  0  0  0  0
   24.9721   26.1357   37.0497 H   0  0  0  0  0  0  0  0  0  0  0  0
   30.7582   28.6623   36.2441 H   0  0  0  0  0  0  0  0  0  0  0  0
   32.0994   29.2455   34.2469 H   0  0  0  0  0  0  0  0  0  0  0  0
   31.0715   28.9442   31.9898 H   0  0  0  0  0  0  0  0  0  0  0  0
   28.9437   27.8129   31.7669 H   0  0  0  0  0  0  0  0  0  0  0  0
   26.3616   25.9529   32.2110 H   0  0  0  0  0  0  0  0  0  0  0  0
   26.7155   27.6567   31.7927 H   0  0  0  0  0  0  0  0  0  0  0  0
   20.4593   26.6229   34.1040 H   0  0  0  0  0  0  0  0  0  0  0  0
   18.5322   24.5186   36.0731 H   0  0  0  0  0  0  0  0  0  0  0  0
   18.4324   25.8982   34.9668 H   0  0  0  0  0  0  0  0  0  0  0  0
   16.1432   27.3347   37.2889 H   0  0  0  0  0  0  0  0  0  0  0  0
   16.7284   27.3154   35.6070 H   0  0  0  0  0  0  0  0  0  0  0  0
   16.0957   25.7854   36.3476 H   0  0  0  0  0  0  0  0  0  0  0  0
   17.6366   24.6070   38.1488 H   0  0  0  0  0  0  0  0  0  0  0  0
   17.1999   26.1398   38.9613 H   0  0  0  0  0  0  0  0  0  0  0  0
   19.6162   26.7702   39.1691 H   0  0  0  0  0  0  0  0  0  0  0  0
   19.1330   25.2881   40.0597 H   0  0  0  0  0  0  0  0  0  0  0  0
  1  2  1  0
  2  3  2  0
  2  4  1  0
  4  5  2  0
  5  6  1  0
  6  7  2  0
  7  8  1  0
  8  9  2  0
  9 10  1  0
 10 11  2  0
 11 12  1  0
 12 13  2  0
 13 14  1  0
  1 15  1  0
 15 16  2  0
 16 17  1  0
 17 18  2  0
 18 19  1  0
 19 20  1  0
 20 21  1  0
 20 22  1  0
 22 23  1  0
 23 24  1  0
 24 25  1  0
 25 26  2  0
 26 27  1  0
 13  4  1  0
 26 15  1  0
 12  7  1  0
 25 18  1  0
  1 28  1  0
  8 29  1  0
  9 30  1  0
 10 31  1  0
 11 32  1  0
 14 33  1  0
 14 34  1  0
 17 35  1  0
 19 36  1  0
 19 37  1  0
 21 38  1  0
 21 39  1  0
 21 40  1  0
 22 41  1  0
 22 42  1  0
 23 43  1  0
 23 44  1  0
M  END
$$$$
confid_7
     RDKit          3D

 44 47  0  0  0  0  0  0  0  0999 V2000
   24.4800   26.1000   36.1300 N   0  0  0  0  0  0  0  0  0  0  0  0
   25.2500   26.2500   34.9900 C   0  0  0  0  0  0  0  0  0  0  0  0
   24.7400   25.7600   33.9900 O   0  0  0  0  0  0  0  0  0  0  0  0
   26.5900   26.8900   34.9600 C   0  0  0  0  0  0  0  0  0  0  0  0
   27.0600   27.2400   36.1600 N   0  0  0  0  0  0  0  0  0  0  0  0
   28.3000   27.7100   36.2400 N   0  0  0  0  0  0  0  0  0  0  0  0
   29.0500   27.9600   35.1500 C   0  0  0  0  0  0  0  0  0  0  0  0
   30.3400   28.4900   35.2600 C   0  0  0  0  0  0  0  0  0  0  0  0
   31.1100   28.8200   34.1400 C   0  0  0  0  0  0  0  0  0  0  0  0
   30.5200   28.6700   32.8800 C   0  0  0  0  0  0  0  0  0  0  0  0
   29.2900   28.0200   32.7700 C   0  0  0  0  0  0  0  0  0  0  0  0
   28.5200   27.7100   33.8900 C   0  0  0  0  0  0  0  0  0  0  0  0
   27.2700   27.0800   33.7600 C   0  0  0  0  0  0  0  0  0  0  0  0
   26.7500   26.8800   32.4900 N   0  0  0  0  0  0  0  0  0  0  0  0
   23.5014   25.0579   36.3299 C   0  0  0  0  0  0  0  0  0  0  0  0
   23.5596   23.9223   35.5833 N   0  0  0  0  0  0  0  0  0  0  0  0
   22.6805   22.9021   35.7404 C   0  0  0  0  0  0  0  0  0  0  0  0
   21.6659   22.9795   36.7041 C   0  0  0  0  0  0  0  0  0  0  0  0
   20.6309   21.8795   36.7721 C   0  0  0  0  0  0  0  0  0  0  0  0
   20.6665   21.1074   38.0356 N   0  0  0  0  0  0  0  0  0  0  0  0
   21.7591   20.1213   38.0247 C   0  0  0  0  0  0  0  0  0  0  0  0
   20.7134   21.9191   39.2737 C   0  0  0  0  0  0  0  0  0  0  0  0
   19.8998   23.2175   39.1713 C   0  0  0  0  0  0  0  0  0  0  0  0
   20.6654   24.2656   38.5731 O   0  0  0  0  0  0  0  0  0  0  0  0
   21.5967   24.1286   37.5264 C   0  0  0  0  0  0  0  0  0  0  0  0
   22.5091   25.1769   37.3223 C   0  0  0  0  0  0  0  0  0  0  0  0
   22.3896   26.6248   38.3224 Cl  0  0  0  0  0  0  0  0  0  0  0  0
   24.6616   26.7630   36.9155 H   0  0  0  0  0  0  0  0  0  0  0  0
   30.7580   28.6629   36.2441 H   0  0  0  0  0  0  0  0  0  0  0  0
   32.0983   29.2479   34.2470 H   0  0  0  0  0  0  0  0  0  0  0  0
   31.0669   28.9543   31.9901 H   0  0  0  0  0  0  0  0  0  0  0  0
   28.9258   27.8587   31.7656 H   0  0  0  0  0  0  0  0  0  0  0  0
   27.2969   26.3786   31.7554 H   0  0  0  0  0  0  0  0  0  0  0  0
   25.7673   27.1503   32.2658 H   0  0  0  0  0  0  0  0  0  0  0  0
   22.7673   22.0340   35.0996 H   0  0  0  0  0  0  0  0  0  0  0  0
   19.6238   22.3219   36.6284 H   0  0  0  0  0  0  0  0  0  0  0  0
   20.7363   21.1878   35.9061 H   0  0  0  0  0  0  0  0  0  0  0  0
   21.6283   19.4130   37.1788 H   0  0  0  0  0  0  0  0  0  0  0  0
   21.7445   19.5212   38.9603 H   0  0  0  0  0  0  0  0  0  0  0  0
   22.7483   20.6214   37.9307 H   0  0  0  0  0  0  0  0  0  0  0  0
   21.7617   22.1712   39.5556 H   0  0  0  0  0  0  0  0  0  0  0  0
   20.2895   21.3101   40.1016 H   0  0  0  0  0  0  0  0  0  0  0  0
   19.6235   23.5456   40.1956 H   0  0  0  0  0  0  0  0  0  0  0  0
   18.9479   23.0642   38.6221 H   0  0  0  0  0  0  0  0  0  0  0  0
  1  2  1  0
  2  3  2  0
  2  4  1  0
  4  5  2  0
  5  6  1  0
  6  7  2  0
  7  8  1  0
  8  9  2  0
  9 10  1  0
 10 11  2  0
 11 12  1  0
 12 13  2  0
 13 14  1  0
  1 15  1  0
 15 16  2  0
 16 17  1  0
 17 18  2  0
 18 19  1  0
 19 20  1  0
 20 21  1  0
 20 22  1  0
 22 23  1  0
 23 24  1  0
 24 25  1  0
 25 26  2  0
 26 27  1  0
 13  4  1  0
 26 15  1  0
 12  7  1  0
 25 18  1  0
  1 28  1  0
  8 29  1  0
  9 30  1  0
 10 31  1  0
 11 32  1  0
 14 33  1  0
 14 34  1  0
 17 35  1  0
 19 36  1  0
 19 37  1  0
 21 38  1  0
 21 39  1  0
 21 40  1  0
 22 41  1  0
 22 42  1  0
 23 43  1  0
 23 44  1  0
M  END
$$$$
confid_8
     RDKit          3D

 44 47  0  0  0  0  0  0  0  0999 V2000
   24.4800   26.1000   36.1300 N   0  0  0  0  0  0  0  0  0  0  0  0
   25.2500   26.2500   34.9900 C   0  0  0  0  0  0  0  0  0  0  0  0
   24.7400   25.7600   33.9900 O   0  0  0  0  0  0  0  0  0  0  0  0
   26.5900   26.8900   34.9600 C   0  0  0  0  0  0  0  0  0  0  0  0
   27.0600   27.2400   36.1600 N   0  0  0  0  0  0  0  0  0  0  0  0
   28.3000   27.7100   36.2400 N   0  0  0  0  0  0  0  0  0  0  0  0
   29.0500   27.9600   35.1500 C   0  0  0  0  0  0  0  0  0  0  0  0
   30.3400   28.4900   35.2600 C   0  0  0  0  0  0  0  0  0  0  0  0
   31.1100   28.8200   34.1400 C   0  0  0  0  0  0  0  0  0  0  0  0
   30.5200   28.6700   32.8800 C   0  0  0  0  0  0  0  0  0  0  0  0
   29.2900   28.0200   32.7700 C   0  0  0  0  0  0  0  0  0  0  0  0
   28.5200   27.7100   33.8900 C   0  0  0  0  0  0  0  0  0  0  0  0
   27.2700   27.0800   33.7600 C   0  0  0  0  0  0  0  0  0  0  0  0
   26.7500   26.8800   32.4900 N   0  0  0  0  0  0  0  0  0  0  0  0
   23.4909   25.0670   36.3251 C   0  0  0  0  0  0  0  0  0  0  0  0
   23.5398   23.9319   35.5769 N   0  0  0  0  0  0  0  0  0  0  0  0
   22.6584   22.9145   35.7395 C   0  0  0  0  0  0  0  0  0  0  0  0
   21.6472   22.9972   36.7063 C   0  0  0  0  0  0  0  0  0  0  0  0
   20.7566   21.7986   36.9435 C   0  0  0  0  0  0  0  0  0  0  0  0
   19.3368   22.0352   36.5941 N   0  0  0  0  0  0  0  0  0  0  0  0
   19.1253   21.9435   35.1404 C   0  0  0  0  0  0  0  0  0  0  0  0
   18.7539   23.2896   37.1242 C   0  0  0  0  0  0  0  0  0  0  0  0
   19.2906   23.6598   38.5146 C   0  0  0  0  0  0  0  0  0  0  0  0
   20.5182   24.3859   38.4225 O   0  0  0  0  0  0  0  0  0  0  0  0
   21.5472   24.1737   37.4856 C   0  0  0  0  0  0  0  0  0  0  0  0
   22.4902   25.1995   37.3071 C   0  0  0  0  0  0  0  0  0  0  0  0
   22.3564   26.6664   38.2772 Cl  0  0  0  0  0  0  0  0  0  0  0  0
   24.6668   26.7573   36.9192 H   0  0  0  0  0  0  0  0  0  0  0  0
   30.7580   28.6629   36.2441 H   0  0  0  0  0  0  0  0  0  0  0  0
   32.0983   29.2479   34.2470 H   0  0  0  0  0  0  0  0  0  0  0  0
   31.0669   28.9543   31.9901 H   0  0  0  0  0  0  0  0  0  0  0  0
   28.9258   27.8587   31.7656 H   0  0  0  0  0  0  0  0  0  0  0  0
   27.2969   26.3786   31.7554 H   0  0  0  0  0  0  0  0  0  0  0  0
   25.7673   27.1503   32.2658 H   0  0  0  0  0  0  0  0  0  0  0  0
   22.7613   22.0305   35.1234 H   0  0  0  0  0  0  0  0  0  0  0  0
   21.1372   20.9113   36.3891 H   0  0  0  0  0  0  0  0  0  0  0  0
   20.8377   21.4934   38.0070 H   0  0  0  0  0  0  0  0  0  0  0  0
   19.7187   22.7143   34.6006 H   0  0  0  0  0  0  0  0  0  0  0  0
   19.4178   20.9365   34.7730 H   0  0  0  0  0  0  0  0  0  0  0  0
   18.0489   22.0808   34.8991 H   0  0  0  0  0  0  0  0  0  0  0  0
   17.6536   23.1520   37.2038 H   0  0  0  0  0  0  0  0  0  0  0  0
   18.9282   24.1444   36.4306 H   0  0  0  0  0  0  0  0  0  0  0  0
   19.4110   22.7654   39.1604 H   0  0  0  0  0  0  0  0  0  0  0  0
   18.5493   24.3153   39.0189 H   0  0  0  0  0  0  0  0  0  0  0  0
  1  2  1  0
  2  3  2  0
  2  4  1  0
  4  5  2  0
  5  6  1  0
  6  7  2  0
  7  8  1  0
  8  9  2  0
  9 10  1  0
 10 11  2  0
 11 12  1  0
 12 13  2  0
 13 14  1  0
  1 15  1  0
 15 16  2  0
 16 17  1  0
 17 18  2  0
 18 19  1  0
 19 20  1  0
 20 21  1  0
 20 22  1  0
 22 23  1  0
 23 24  1  0
 24 25  1  0
 25 26  2  0
 26 27  1  0
 13  4  1  0
 26 15  1  0
 12  7  1  0
 25 18  1  0
  1 28  1  0
  8 29  1  0
  9 30  1  0
 10 31  1  0
 11 32  1  0
 14 33  1  0
 14 34  1  0
 17 35  1  0
 19 36  1  0
 19 37  1  0
 21 38  1  0
 21 39  1  0
 21 40  1  0
 22 41  1  0
 22 42  1  0
 23 43  1  0
 23 44  1  0
M  END
$$$$
