confid_0
     RDKit          3D

 39 42  0  0  0  0  0  0  0  0999 V2000
   24.4800   26.1000   36.1300 N   0  0  0  0  0  0  0  0  0  0  0  0
   25.2500   26.2500   34.9900 C   0  0  0  0  0  0  0  0  0  0  0  0
   24.7400   25.7600   33.9900 O   0  0  0  0  0  0  0  0  0  0  0  0
   26.5900   26.8900   34.9600 C   0  0  0  0  0  0  0  0  0  0  0  0
   27.0600   27.2400   36.1600 N   0  0  0  0  0  0  0  0  0  0  0  0
   28.3000   27.7100   36.2400 N   0  0  0  0  0  0  0  0  0  0  0  0
   29.0500   27.9600   35.1500 C   0  0  0  0  0  0  0  0  0  0  0  0
   30.3400   28.4900   35.2600 C   0  0  0  0  0  0  0  0  0  0  0  0
   31.1100   28.8200   34.1400 C   0  0  0  0  0  0  0  0  0  0  0  0
   30.5200   28.6700   32.8800 C   0  0  0  0  0  0  0  0  0  0  0  0
   29.2900   28.0200   32.7700 C   0  0  0  0  0  0  0  0  0  0  0  0
   28.5200   27.7100   33.8900 C   0  0  0  0  0  0  0  0  0  0  0  0
   27.2700   27.0800   33.7600 C   0  0  0  0  0  0  0  0  0  0  0  0
   26.7500   26.8800   32.4900 N   0  0  0  0  0  0  0  0  0  0  0  0
   23.0423   26.0703   36.1506 C   0  0  0  0  0  0  0  0  0  0  0  0
   22.4464   25.5948   37.2108 N   0  0  0  0  0  0  0  0  0  0  0  0
   21.0321   25.3826   37.3651 C   0  0  0  0  0  0  0  0  0  0  0  0
   20.2176   25.4105   36.3119 C   0  0  0  0  0  0  0  0  0  0  0  0
   18.8387   24.8397   36.2529 C   0  0  0  0  0  0  0  0  0  0  0  0
   18.6143   24.8758   34.7785 C   0  0  0  0  0  0  0  0  0  0  0  0
   17.5752   24.4537   34.2065 O   0  0  0  0  0  0  0  0  0  0  0  0
   19.7449   25.4854   34.0874 C   0  0  0  0  0  0  0  0  0  0  0  0
   20.6696   25.8047   34.9924 C   0  0  0  0  0  0  0  0  0  0  0  0
   22.1031   26.8559   34.8082 S   0  0  0  0  0  0  0  0  0  0  0  0
   19.7653   25.7027   32.7009 O   0  0  0  0  0  0  0  0  0  0  0  0
   20.8683   26.2173   31.9653 C   0  0  0  0  0  0  0  0  0  0  0  0
   24.9741   26.0047   37.0460 H   0  0  0  0  0  0  0  0  0  0  0  0
   30.7580   28.6629   36.2441 H   0  0  0  0  0  0  0  0  0  0  0  0
   32.0983   29.2479   34.2470 H   0  0  0  0  0  0  0  0  0  0  0  0
   31.0669   28.9543   31.9901 H   0  0  0  0  0  0  0  0  0  0  0  0
   28.9258   27.8587   31.7656 H   0  0  0  0  0  0  0  0  0  0  0  0
   25.7669   27.1493   32.2662 H   0  0  0  0  0  0  0  0  0  0  0  0
   27.2969   26.3790   31.7552 H   0  0  0  0  0  0  0  0  0  0  0  0
   20.6613   25.0192   38.3147 H   0  0  0  0  0  0  0  0  0  0  0  0
   18.1136   25.4913   36.7847 H   0  0  0  0  0  0  0  0  0  0  0  0
   18.8173   23.7946   36.6291 H   0  0  0  0  0  0  0  0  0  0  0  0
   21.7791   25.6137   32.1639 H   0  0  0  0  0  0  0  0  0  0  0  0
   21.0368   27.2829   32.2247 H   0  0  0  0  0  0  0  0  0  0  0  0
   20.6372   26.1580   30.8822 H   0  0  0  0  0  0  0  0  0  0  0  0
  1  2  1  0
  2  3  2  0
  2  4  1  0
  4  5  2  0
  5  6  1  0
  6  7  2  0
  7  8  1  0
  8  9  2  0
  9 10  1  0
 10 11  2  0
 11 12  1  0
 12 13  2  0
 13 14  1  0
  1 15  1  0
 15 16  2  0
 16 17  1  0
 17 18  2  0
 18 19  1  0
 19 20  1  0
 20 21  2  0
 20 22  1  0
 22 23  2  0
 23 24  1  0
 22 25  1  0
 25 26  1  0
 13  4  1  0
 24 15  1  0
 12  7  1  0
 23 18  1  0
  1 27  1  0
  8 28  1  0
  9 29  1  0
 10 30  1  0
 11 31  1  0
 14 32  1  0
 14 33  1  0
 17 34  1  0
 19 35  1  0
 19 36  1  0
 26 37  1  0
 26 38  1  0
 26 39  1  0
M  END
$$$$
confid_1
     RDKit          3D

 39 42  0  0  0  0  0  0  0  0999 V2000
   24.4800   26.1000   36.1300 N   0  0  0  0  0  0  0  0  0  0  0  0
   25.2500   26.2500   34.9900 C   0  0  0  0  0  0  0  0  0  0  0  0
   24.7400   25.7600   33.9900 O   0  0  0  0  0  0  0  0  0  0  0  0
   26.5900   26.8900   34.9600 C   0  0  0  0  0  0  0  0  0  0  0  0
   27.0600   27.2400   36.1600 N   0  0  0  0  0  0  0  0  0  0  0  0
   28.3000   27.7100   36.2400 N   0  0  0  0  0  0  0  0  0  0  0  0
   29.0500   27.9600   35.1500 C   0  0  0  0  0  0  0  0  0  0  0  0
   30.3400   28.4900   35.2600 C   0  0  0  0  0  0  0  0  0  0  0  0
   31.1100   28.8200   34.1400 C   0  0  0  0  0  0  0  0  0  0  0  0
   30.5200   28.6700   32.8800 C   0  0  0  0  0  0  0  0  0  0  0  0
   29.2900   28.0200   32.7700 C   0  0  0  0  0  0  0  0  0  0  0  0
   28.5200   27.7100   33.8900 C   0  0  0  0  0  0  0  0  0  0  0  0
   27.2700   27.0800   33.7600 C   0  0  0  0  0  0  0  0  0  0  0  0
   26.7500   26.8800   32.4900 N   0  0  0  0  0  0  0  0  0  0  0  0
   23.5604   25.0205   36.3707 C   0  0  0  0  0  0  0  0  0  0  0  0
   22.6486   25.1764   37.2924 N   0  0  0  0  0  0  0  0  0  0  0  0
   21.5829   24.2590   37.5949 C   0  0  0  0  0  0  0  0  0  0  0  0
   21.2764   23.2677   36.7602 C   0  0  0  0  0  0  0  0  0  0  0  0
   19.9940   22.5025   36.7389 C   0  0  0  0  0  0  0  0  0  0  0  0
   20.1308   21.8189   35.4200 C   0  0  0  0  0  0  0  0  0  0  0  0
   19.2595   21.0619   34.9173 O   0  0  0  0  0  0  0  0  0  0  0  0
   21.4154   22.1222   34.7992 C   0  0  0  0  0  0  0  0  0  0  0  0
   22.0810   22.9587   35.5948 C   0  0  0  0  0  0  0  0  0  0  0  0
   23.8064   23.4219   35.5432 S   0  0  0  0  0  0  0  0  0  0  0  0
   21.8279   21.5564   33.5827 O   0  0  0  0  0  0  0  0  0  0  0  0
   23.0300   21.8758   32.8931 C   0  0  0  0  0  0  0  0  0  0  0  0
   24.5695   26.8284   36.8742 H   0  0  0  0  0  0  0  0  0  0  0  0
   30.7582   28.6623   36.2441 H   0  0  0  0  0  0  0  0  0  0  0  0
   32.0994   29.2455   34.2469 H   0  0  0  0  0  0  0  0  0  0  0  0
   31.0716   28.9442   31.9898 H   0  0  0  0  0  0  0  0  0  0  0  0
   28.9437   27.8128   31.7669 H   0  0  0  0  0  0  0  0  0  0  0  0
   26.7158   27.6566   31.7925 H   0  0  0  0  0  0  0  0  0  0  0  0
   26.3612   25.9530   32.2113 H   0  0  0  0  0  0  0  0  0  0  0  0
   20.9147   24.4899   38.4143 H   0  0  0  0  0  0  0  0  0  0  0  0
   19.9541   21.7666   37.5695 H   0  0  0  0  0  0  0  0  0  0  0  0
   19.1165   23.1839   36.7402 H   0  0  0  0  0  0  0  0  0  0  0  0
   23.0986   22.9715   32.7257 H   0  0  0  0  0  0  0  0  0  0  0  0
   23.0236   21.3696   31.9062 H   0  0  0  0  0  0  0  0  0  0  0  0
   23.9074   21.5082   33.4642 H   0  0  0  0  0  0  0  0  0  0  0  0
  1  2  1  0
  2  3  2  0
  2  4  1  0
  4  5  2  0
  5  6  1  0
  6  7  2  0
  7  8  1  0
  8  9  2  0
  9 10  1  0
 10 11  2  0
 11 12  1  0
 12 13  2  0
 13 14  1  0
  1 15  1  0
 15 16  2  0
 16 17  1  0
 17 18  2  0
 18 19  1  0
 19 20  1  0
 20 21  2  0
 20 22  1  0
 22 23  2  0
 23 24  1  0
 22 25  1  0
 25 26  1  0
 13  4  1  0
 24 15  1  0
 12  7  1  0
 23 18  1  0
  1 27  1  0
  8 28  1  0
  9 29  1  0
 10 30  1  0
 11 31  1  0
 14 32  1  0
 14 33  1  0
 17 34  1  0
 19 35  1  0
 19 36  1  0
 26 37  1  0
 26 38  1  0
 26 39  1  0
M  END
$$$$
confid_2
     RDKit          3D

 39 42  0  0  0  0  0  0  0  0999 V2000
   24.4800   26.1000   36.1300 N   0  0  0  0  0  0  0  0  0  0  0  0
   25.2500   26.2500   34.9900 C   0  0  0  0  0  0  0  0  0  0  0  0
   24.7400   25.7600   33.9900 O   0  0  0  0  0  0  0  0  0  0  0  0
   26.5900   26.8900   34.9600 C   0  0  0  0  0  0  0  0  0  0  0  0
   27.0600   27.2400   36.1600 N   0  0  0  0  0  0  0  0  0  0  0  0
   28.3000   27.7100   36.2400 N   0  0  0  0  0  0  0  0  0  0  0  0
   29.0500   27.9600   35.1500 C   0  0  0  0  0  0  0  0  0  0  0  0
   30.3400   28.4900   35.2600 C   0  0  0  0  0  0  0  0  0  0  0  0
   31.1100   28.8200   34.1400 C   0  0  0  0  0  0  0  0  0  0  0  0
   30.5200   28.6700   32.8800 C   0  0  0  0  0  0  0  0  0  0  0  0
   29.2900   28.0200   32.7700 C   0  0  0  0  0  0  0  0  0  0  0  0
   28.5200   27.7100   33.8900 C   0  0  0  0  0  0  0  0  0  0  0  0
   27.2700   27.0800   33.7600 C   0  0  0  0  0  0  0  0  0  0  0  0
   26.7500   26.8800   32.4900 N   0  0  0  0  0  0  0  0  0  0  0  0
   23.5626   25.0192   36.3740 C   0  0  0  0  0  0  0  0  0  0  0  0
   22.6516   25.1801   37.2971 N   0  0  0  0  0  0  0  0  0  0  0  0
   21.5907   24.2651   37.6235 C   0  0  0  0  0  0  0  0  0  0  0  0
   21.3020   23.2407   36.8261 C   0  0  0  0  0  0  0  0  0  0  0  0
   20.0472   22.4282   36.8392 C   0  0  0  0  0  0  0  0  0  0  0  0
   20.2231   21.6645   35.5663 C   0  0  0  0  0  0  0  0  0  0  0  0
   19.3821   20.8454   35.1117 O   0  0  0  0  0  0  0  0  0  0  0  0
   21.5112   21.9888   34.9444 C   0  0  0  0  0  0  0  0  0  0  0  0
   22.1155   22.9015   35.6814 C   0  0  0  0  0  0  0  0  0  0  0  0
   23.8156   23.4181   35.5455 S   0  0  0  0  0  0  0  0  0  0  0  0
   22.0767   21.4156   33.7997 O   0  0  0  0  0  0  0  0  0  0  0  0
   21.4319   20.4123   33.0260 C   0  0  0  0  0  0  0  0  0  0  0  0
   24.5688   26.8299   36.8729 H   0  0  0  0  0  0  0  0  0  0  0  0
   30.7582   28.6623   36.2441 H   0  0  0  0  0  0  0  0  0  0  0  0
   32.0994   29.2455   34.2469 H   0  0  0  0  0  0  0  0  0  0  0  0
   31.0716   28.9442   31.9898 H   0  0  0  0  0  0  0  0  0  0  0  0
   28.9437   27.8128   31.7669 H   0  0  0  0  0  0  0  0  0  0  0  0
   26.7157   27.6566   31.7925 H   0  0  0  0  0  0  0  0  0  0  0  0
   26.3615   25.9529   32.2111 H   0  0  0  0  0  0  0  0  0  0  0  0
   20.9211   24.5118   38.4372 H   0  0  0  0  0  0  0  0  0  0  0  0
   19.1468   23.0768   36.7886 H   0  0  0  0  0  0  0  0  0  0  0  0
   20.0225   21.7459   37.7149 H   0  0  0  0  0  0  0  0  0  0  0  0
   20.4732   20.8001   32.6216 H   0  0  0  0  0  0  0  0  0  0  0  0
   22.0883   20.1312   32.1772 H   0  0  0  0  0  0  0  0  0  0  0  0
   21.2480   19.5108   33.6477 H   0  0  0  0  0  0  0  0  0  0  0  0
  1  2  1  0
  2  3  2  0
  2  4  1  0
  4  5  2  0
  5  6  1  0
  6  7  2  0
  7  8  1  0
  8  9  2  0
  9 10  1  0
 10 11  2  0
 11 12  1  0
 12 13  2  0
 13 14  1  0
  1 15  1  0
 15 16  2  0
 16 17  1  0
 17 18  2  0
 18 19  1  0
 19 20  1  0
 20 21  2  0
 20 22  1  0
 22 23  2  0
 23 24  1  0
 22 25  1  0
 25 26  1  0
 13  4  1  0
 24 15  1  0
 12  7  1  0
 23 18  1  0
  1 27  1  0
  8 28  1  0
  9 29  1  0
 10 30  1  0
 11 31  1  0
 14 32  1  0
 14 33  1  0
 17 34  1  0
 19 35  1  0
 19 36  1  0
 26 37  1  0
 26 38  1  0
 26 39  1  0
M  END
$$$$
confid_3
     RDKit          3D

 39 42  0  0  0  0  0  0  0  0999 V2000
   24.4800   26.1000   36.1300 N   0  0  0  0  0  0  0  0  0  0  0  0
   25.2500   26.2500   34.9900 C   0  0  0  0  0  0  0  0  0  0  0  0
   24.7400   25.7600   33.9900 O   0  0  0  0  0  0  0  0  0  0  0  0
   26.5900   26.8900   34.9600 C   0  0  0  0  0  0  0  0  0  0  0  0
   27.0600   27.2400   36.1600 N   0  0  0  0  0  0  0  0  0  0  0  0
   28.3000   27.7100   36.2400 N   0  0  0  0  0  0  0  0  0  0  0  0
   29.0500   27.9600   35.1500 C   0  0  0  0  0  0  0  0  0  0  0  0
   30.3400   28.4900   35.2600 C   0  0  0  0  0  0  0  0  0  0  0  0
   31.1100   28.8200   34.1400 C   0  0  0  0  0  0  0  0  0  0  0  0
   30.5200   28.6700   32.8800 C   0  0  0  0  0  0  0  0  0  0  0  0
   29.2900   28.0200   32.7700 C   0  0  0  0  0  0  0  0  0  0  0  0
   28.5200   27.7100   33.8900 C   0  0  0  0  0  0  0  0  0  0  0  0
   27.2700   27.0800   33.7600 C   0  0  0  0  0  0  0  0  0  0  0  0
   26.7500   26.8800   32.4900 N   0  0  0  0  0  0  0  0  0  0  0  0
   23.0421   26.0716   36.1533 C   0  0  0  0  0  0  0  0  0  0  0  0
   22.4515   25.5967   37.2181 N   0  0  0  0  0  0  0  0  0  0  0  0
   21.0387   25.3936   37.3962 C   0  0  0  0  0  0  0  0  0  0  0  0
   20.2028   25.4619   36.3641 C   0  0  0  0  0  0  0  0  0  0  0  0
   18.7996   24.9482   36.3193 C   0  0  0  0  0  0  0  0  0  0  0  0
   18.5289   25.0694   34.8542 C   0  0  0  0  0  0  0  0  0  0  0  0
   17.4530   24.7182   34.3030 O   0  0  0  0  0  0  0  0  0  0  0  0
   19.6767   25.6692   34.1659 C   0  0  0  0  0  0  0  0  0  0  0  0
   20.6322   25.8834   35.0507 C   0  0  0  0  0  0  0  0  0  0  0  0
   22.1036   26.8584   34.8064 S   0  0  0  0  0  0  0  0  0  0  0  0
   19.7728   26.0283   32.8166 O   0  0  0  0  0  0  0  0  0  0  0  0
   18.7288   25.8202   31.8746 C   0  0  0  0  0  0  0  0  0  0  0  0
   24.9752   26.0044   37.0454 H   0  0  0  0  0  0  0  0  0  0  0  0
   30.7580   28.6629   36.2441 H   0  0  0  0  0  0  0  0  0  0  0  0
   32.0983   29.2479   34.2470 H   0  0  0  0  0  0  0  0  0  0  0  0
   31.0669   28.9543   31.9901 H   0  0  0  0  0  0  0  0  0  0  0  0
   28.9258   27.8587   31.7656 H   0  0  0  0  0  0  0  0  0  0  0  0
   27.2969   26.3789   31.7552 H   0  0  0  0  0  0  0  0  0  0  0  0
   25.7670   27.1498   32.2661 H   0  0  0  0  0  0  0  0  0  0  0  0
   20.6812   25.0208   38.3472 H   0  0  0  0  0  0  0  0  0  0  0  0
   18.7486   23.8868   36.6432 H   0  0  0  0  0  0  0  0  0  0  0  0
   18.1175   25.5980   36.9072 H   0  0  0  0  0  0  0  0  0  0  0  0
   18.4990   24.7368   31.7932 H   0  0  0  0  0  0  0  0  0  0  0  0
   17.8211   26.3818   32.1810 H   0  0  0  0  0  0  0  0  0  0  0  0
   19.0573   26.1896   30.8816 H   0  0  0  0  0  0  0  0  0  0  0  0
  1  2  1  0
  2  3  2  0
  2  4  1  0
  4  5  2  0
  5  6  1  0
  6  7  2  0
  7  8  1  0
  8  9  2  0
  9 10  1  0
 10 11  2  0
 11 12  1  0
 12 13  2  0
 13 14  1  0
  1 15  1  0
 15 16  2  0
 16 17  1  0
 17 18  2  0
 18 19  1  0
 19 20  1  0
 20 21  2  0
 20 22  1  0
 22 23  2  0
 23 24  1  0
 22 25  1  0
 25 26  1  0
 13  4  1  0
 24 15  1  0
 12  7  1  0
 23 18  1  0
  1 27  1  0
  8 28  1  0
  9 29  1  0
 10 30  1  0
 11 31  1  0
 14 32  1  0
 14 33  1  0
 17 34  1  0
 19 35  1  0
 19 36  1  0
 26 37  1  0
 26 38  1  0
 26 39  1  0
M  END
$$$$
confid_4
     RDKit          3D

 39 42  0  0  0  0  0  0  0  0999 V2000
   24.4800   26.1000   36.1300 N   0  0  0  0  0  0  0  0  0  0  0  0
   25.2500   26.2500   34.9900 C   0  0  0  0  0  0  0  0  0  0  0  0
   24.7400   25.7600   33.9900 O   0  0  0  0  0  0  0  0  0  0  0  0
   26.5900   26.8900   34.9600 C   0  0  0  0  0  0  0  0  0  0  0  0
   27.0600   27.2400   36.1600 N   0  0  0  0  0  0  0  0  0  0  0  0
   28.3000   27.7100   36.2400 N   0  0  0  0  0  0  0  0  0  0  0  0
   29.0500   27.9600   35.1500 C   0  0  0  0  0  0  0  0  0  0  0  0
   30.3400   28.4900   35.2600 C   0  0  0  0  0  0  0  0  0  0  0  0
   31.1100   28.8200   34.1400 C   0  0  0  0  0  0  0  0  0  0  0  0
   30.5200   28.6700   32.8800 C   0  0  0  0  0  0  0  0  0  0  0  0
   29.2900   28.0200   32.7700 C   0  0  0  0  0  0  0  0  0  0  0  0
   28.5200   27.7100   33.8900 C   0  0  0  0  0  0  0  0  0  0  0  0
   27.2700   27.0800   33.7600 C   0  0  0  0  0  0  0  0  0  0  0  0
   26.7500   26.8800   32.4900 N   0  0  0  0  0  0  0  0  0  0  0  0
   23.0567   26.2982   36.1846 C   0  0  0  0  0  0  0  0  0  0  0  0
   22.4406   26.0281   37.3043 N   0  0  0  0  0  0  0  0  0  0  0  0
   21.0231   26.0704   37.5399 C   0  0  0  0  0  0  0  0  0  0  0  0
   20.1645   26.1678   36.5302 C   0  0  0  0  0  0  0  0  0  0  0  0
   18.6962   25.8922   36.5800 C   0  0  0  0  0  0  0  0  0  0  0  0
   18.3815   25.9112   35.1188 C   0  0  0  0  0  0  0  0  0  0  0  0
   17.2363   25.7021   34.6413 O   0  0  0  0  0  0  0  0  0  0  0  0
   19.5781   26.2461   34.3394 C   0  0  0  0  0  0  0  0  0  0  0  0
   20.5947   26.3881   35.1684 C   0  0  0  0  0  0  0  0  0  0  0  0
   22.1931   27.0750   34.7806 S   0  0  0  0  0  0  0  0  0  0  0  0
   19.6678   26.4497   32.9575 O   0  0  0  0  0  0  0  0  0  0  0  0
   18.5667   26.3015   32.0705 C   0  0  0  0  0  0  0  0  0  0  0  0
   24.9754   25.9041   37.0284 H   0  0  0  0  0  0  0  0  0  0  0  0
   30.7581   28.6627   36.2441 H   0  0  0  0  0  0  0  0  0  0  0  0
   32.0985   29.2473   34.2471 H   0  0  0  0  0  0  0  0  0  0  0  0
   31.0664   28.9552   31.9901 H   0  0  0  0  0  0  0  0  0  0  0  0
   28.9259   27.8576   31.7657 H   0  0  0  0  0  0  0  0  0  0  0  0
   27.2957   26.3763   31.7561 H   0  0  0  0  0  0  0  0  0  0  0  0
   25.7686   27.1553   32.2651 H   0  0  0  0  0  0  0  0  0  0  0  0
   20.6537   25.8463   38.5331 H   0  0  0  0  0  0  0  0  0  0  0  0
   18.4888   24.8912   37.0155 H   0  0  0  0  0  0  0  0  0  0  0  0
   18.1578   26.7025   37.1148 H   0  0  0  0  0  0  0  0  0  0  0  0
   17.7699   27.0306   32.3284 H   0  0  0  0  0  0  0  0  0  0  0  0
   18.9073   26.4976   31.0334 H   0  0  0  0  0  0  0  0  0  0  0  0
   18.1688   25.2662   32.1259 H   0  0  0  0  0  0  0  0  0  0  0  0
  1  2  1  0
  2  3  2  0
  2  4  1  0
  4  5  2  0
  5  6  1  0
  6  7  2  0
  7  8  1  0
  8  9  2  0
  9 10  1  0
 10 11  2  0
 11 12  1  0
 12 13  2  0
 13 14  1  0
  1 15  1  0
 15 16  2  0
 16 17  1  0
 17 18  2  0
 18 19  1  0
 19 20  1  0
 20 21  2  0
 20 22  1  0
 22 23  2  0
 23 24  1  0
 22 25  1  0
 25 26  1  0
 13  4  1  0
 24 15  1  0
 12  7  1  0
 23 18  1  0
  1 27  1  0
  8 28  1  0
  9 29  1  0
 10 30  1  0
 11 31  1  0
 14 32  1  0
 14 33  1  0
 17 34  1  0
 19 35  1  0
 19 36  1  0
 26 37  1  0
 26 38  1  0
 26 39  1  0
M  END
$$$$
confid_5
     RDKit          3D

 39 42  0  0  0  0  0  0  0  0999 V2000
   24.4800   26.1000   36.1300 N   0  0  0  0  0  0  0  0  0  0  0  0
   25.2500   26.2500   34.9900 C   0  0  0  0  0  0  0  0  0  0  0  0
   24.7400   25.7600   33.9900 O   0  0  0  0  0  0  0  0  0  0  0  0
   26.5900   26.8900   34.9600 C   0  0  0  0  0  0  0  0  0  0  0  0
   27.0600   27.2400   36.1600 N   0  0  0  0  0  0  0  0  0  0  0  0
   28.3000   27.7100   36.2400 N   0  0  0  0  0  0  0  0  0  0  0  0
   29.0500   27.9600   35.1500 C   0  0  0  0  0  0  0  0  0  0  0  0
   30.3400   28.4900   35.2600 C   0  0  0  0  0  0  0  0  0  0  0  0
   31.1100   28.8200   34.1400 C   0  0  0  0  0  0  0  0  0  0  0  0
   30.5200   28.6700   32.8800 C   0  0  0  0  0  0  0  0  0  0  0  0
   29.2900   28.0200   32.7700 C   0  0  0  0  0  0  0  0  0  0  0  0
   28.5200   27.7100   33.8900 C   0  0  0  0  0  0  0  0  0  0  0  0
   27.2700   27.0800   33.7600 C   0  0  0  0  0  0  0  0  0  0  0  0
   26.7500   26.8800   32.4900 N   0  0  0  0  0  0  0  0  0  0  0  0
   23.1654   26.6646   36.2622 C   0  0  0  0  0  0  0  0  0  0  0  0
   22.6749   26.8157   37.4637 N   0  0  0  0  0  0  0  0  0  0  0  0
   21.3623   27.2919   37.8046 C   0  0  0  0  0  0  0  0  0  0  0  0
   20.3999   27.3378   36.8918 C   0  0  0  0  0  0  0  0  0  0  0  0
   18.9294   27.4467   37.1418 C   0  0  0  0  0  0  0  0  0  0  0  0
   18.4125   27.1065   35.7803 C   0  0  0  0  0  0  0  0  0  0  0  0
   17.1915   26.9823   35.4991 O   0  0  0  0  0  0  0  0  0  0  0  0
   19.5228   26.9503   34.8354 C   0  0  0  0  0  0  0  0  0  0  0  0
   20.6569   27.1003   35.4901 C   0  0  0  0  0  0  0  0  0  0  0  0
   22.2848   27.2886   34.7890 S   0  0  0  0  0  0  0  0  0  0  0  0
   19.4463   26.7406   33.4535 O   0  0  0  0  0  0  0  0  0  0  0  0
   18.2223   26.5925   32.7457 C   0  0  0  0  0  0  0  0  0  0  0  0
   24.9701   25.8279   37.0130 H   0  0  0  0  0  0  0  0  0  0  0  0
   30.7587   28.6619   36.2440 H   0  0  0  0  0  0  0  0  0  0  0  0
   32.1007   29.2433   34.2471 H   0  0  0  0  0  0  0  0  0  0  0  0
   31.0690   28.9488   31.9892 H   0  0  0  0  0  0  0  0  0  0  0  0
   28.9423   27.8107   31.7673 H   0  0  0  0  0  0  0  0  0  0  0  0
   26.7041   27.6609   31.7975 H   0  0  0  0  0  0  0  0  0  0  0  0
   26.3709   25.9494   32.2080 H   0  0  0  0  0  0  0  0  0  0  0  0
   21.1169   27.4346   38.8490 H   0  0  0  0  0  0  0  0  0  0  0  0
   18.5887   26.7055   37.8957 H   0  0  0  0  0  0  0  0  0  0  0  0
   18.6565   28.4863   37.4220 H   0  0  0  0  0  0  0  0  0  0  0  0
   17.6295   27.5282   32.8195 H   0  0  0  0  0  0  0  0  0  0  0  0
   17.6401   25.7420   33.1601 H   0  0  0  0  0  0  0  0  0  0  0  0
   18.4417   26.3913   31.6780 H   0  0  0  0  0  0  0  0  0  0  0  0
  1  2  1  0
  2  3  2  0
  2  4  1  0
  4  5  2  0
  5  6  1  0
  6  7  2  0
  7  8  1  0
  8  9  2  0
  9 10  1  0
 10 11  2  0
 11 12  1  0
 12 13  2  0
 13 14  1  0
  1 15  1  0
 15 16  2  0
 16 17  1  0
 17 18  2  0
 18 19  1  0
 19 20  1  0
 20 21  2  0
 20 22  1  0
 22 23  2  0
 23 24  1  0
 22 25  1  0
 25 26  1  0
 13  4  1  0
 24 15  1  0
 12  7  1  0
 23 18  1  0
  1 27  1  0
  8 28  1  0
  9 29  1  0
 10 30  1  0
 11 31  1  0
 14 32  1  0
 14 33  1  0
 17 34  1  0
 19 35  1  0
 19 36  1  0
 26 37  1  0
 26 38  1  0
 26 39  1  0
M  END
$$$$
