confid_0
     RDKit          3D

 45 48  0  0  0  0  0  0  0  0999 V2000
   24.5500   26.3900   36.2500 N   0  0  0  0  0  0  0  0  0  0  0  0
   25.6000   26.1300   35.4000 C   0  0  0  0  0  0  0  0  0  0  0  0
   25.4300   25.4300   34.4200 O   0  0  0  0  0  0  0  0  0  0  0  0
   26.9800   26.6300   35.7100 C   0  0  0  0  0  0  0  0  0  0  0  0
   27.3200   26.8200   36.9800 N   0  0  0  0  0  0  0  0  0  0  0  0
   28.4700   27.4000   37.3100 N   0  0  0  0  0  0  0  0  0  0  0  0
   29.4000   27.6300   36.3700 C   0  0  0  0  0  0  0  0  0  0  0  0
   30.6600   28.0500   36.8000 C   0  0  0  0  0  0  0  0  0  0  0  0
   31.5700   28.3600   35.7800 C   0  0  0  0  0  0  0  0  0  0  0  0
   31.3700   28.1000   34.4300 C   0  0  0  0  0  0  0  0  0  0  0  0
   30.1200   27.5900   34.0500 C   0  0  0  0  0  0  0  0  0  0  0  0
   29.1500   27.3400   35.0300 C   0  0  0  0  0  0  0  0  0  0  0  0
   27.8800   26.8900   34.6600 C   0  0  0  0  0  0  0  0  0  0  0  0
   27.4800   26.6100   33.3700 N   0  0  0  0  0  0  0  0  0  0  0  0
   30.9996   28.3125   38.2242 C   0  0  0  0  0  0  0  0  0  0  0  0
   32.2911   28.0361   38.7191 C   0  0  0  0  0  0  0  0  0  0  0  0
   32.5540   28.3117   40.0588 C   0  0  0  0  0  0  0  0  0  0  0  0
   33.8220   28.1017   40.7981 C   0  0  0  0  0  0  0  0  0  0  0  0
   33.4959   28.5647   42.1487 N   0  0  0  0  0  0  0  0  0  0  0  0
   34.4165   28.5630   43.2510 C   0  0  0  0  0  0  0  0  0  0  0  0
   34.0435   28.9820   44.3800 O   0  0  0  0  0  0  0  0  0  0  0  0
   35.8194   28.0694   43.0808 C   0  0  0  0  0  0  0  0  0  0  0  0
   32.1137   29.0344   42.2546 C   0  0  0  0  0  0  0  0  0  0  0  0
   31.5876   28.8374   40.8794 C   0  0  0  0  0  0  0  0  0  0  0  0
   30.3104   29.1072   40.3799 C   0  0  0  0  0  0  0  0  0  0  0  0
   30.0558   28.8376   39.0666 N   0  0  0  0  0  0  0  0  0  0  0  0
   29.2358   29.6777   41.2503 C   0  0  0  0  0  0  0  0  0  0  0  0
   24.6739   26.9931   37.0934 H   0  0  0  0  0  0  0  0  0  0  0  0
   23.6001   26.0039   36.0504 H   0  0  0  0  0  0  0  0  0  0  0  0
   32.5275   28.7868   36.0514 H   0  0  0  0  0  0  0  0  0  0  0  0
   32.1339   28.3183   33.6949 H   0  0  0  0  0  0  0  0  0  0  0  0
   29.9362   27.3931   33.0015 H   0  0  0  0  0  0  0  0  0  0  0  0
   27.5825   27.3394   32.6301 H   0  0  0  0  0  0  0  0  0  0  0  0
   27.4183   25.6173   33.0515 H   0  0  0  0  0  0  0  0  0  0  0  0
   33.0611   27.6071   38.0904 H   0  0  0  0  0  0  0  0  0  0  0  0
   34.6347   28.7192   40.3600 H   0  0  0  0  0  0  0  0  0  0  0  0
   34.0918   27.0243   40.8101 H   0  0  0  0  0  0  0  0  0  0  0  0
   36.3407   28.6805   42.3150 H   0  0  0  0  0  0  0  0  0  0  0  0
   35.8058   27.0074   42.7587 H   0  0  0  0  0  0  0  0  0  0  0  0
   36.3787   28.1443   44.0377 H   0  0  0  0  0  0  0  0  0  0  0  0
   31.5484   28.4146   42.9828 H   0  0  0  0  0  0  0  0  0  0  0  0
   32.0896   30.1095   42.5329 H   0  0  0  0  0  0  0  0  0  0  0  0
   29.0315   28.9878   42.0958 H   0  0  0  0  0  0  0  0  0  0  0  0
   28.2989   29.8176   40.6704 H   0  0  0  0  0  0  0  0  0  0  0  0
   29.5585   30.6624   41.6489 H   0  0  0  0  0  0  0  0  0  0  0  0
  1  2  1  0
  2  3  2  0
  2  4  1  0
  4  5  2  0
  5  6  1  0
  6  7  2  0
  7  8  1  0
  8  9  2  0
  9 10  1  0
 10 11  2  0
 11 12  1  0
 12 13  2  0
 13 14  1  0
  8 15  1  0
 15 16  2  0
 16 17  1  0
 17 18  1  0
 18 19  1  0
 19 20  1  0
 20 21  2  0
 20 22  1  0
 19 23  1  0
 23 24  1  0
 24 25  1  0
 25 26  2  0
 25 27  1  0
 13  4  1  0
 26 15  1  0
 12  7  1  0
 24 17  2  0
  1 28  1  0
  1 29  1  0
  9 30  1  0
 10 31  1  0
 11 32  1  0
 14 33  1  0
 14 34  1  0
 16 35  1  0
 18 36  1  0
 18 37  1  0
 22 38  1  0
 22 39  1  0
 22 40  1  0
 23 41  1  0
 23 42  1  0
 27 43  1  0
 27 44  1  0
 27 45  1  0
M  END
$$$$
confid_1
     RDKit          3D

 45 48  0  0  0  0  0  0  0  0999 V2000
   24.5500   26.3900   36.2500 N   0  0  0  0  0  0  0  0  0  0  0  0
   25.6000   26.1300   35.4000 C   0  0  0  0  0  0  0  0  0  0  0  0
   25.4300   25.4300   34.4200 O   0  0  0  0  0  0  0  0  0  0  0  0
   26.9800   26.6300   35.7100 C   0  0  0  0  0  0  0  0  0  0  0  0
   27.3200   26.8200   36.9800 N   0  0  0  0  0  0  0  0  0  0  0  0
   28.4700   27.4000   37.3100 N   0  0  0  0  0  0  0  0  0  0  0  0
   29.4000   27.6300   36.3700 C   0  0  0  0  0  0  0  0  0  0  0  0
   30.6600   28.0500   36.8000 C   0  0  0  0  0  0  0  0  0  0  0  0
   31.5700   28.3600   35.7800 C   0  0  0  0  0  0  0  0  0  0  0  0
   31.3700   28.1000   34.4300 C   0  0  0  0  0  0  0  0  0  0  0  0
   30.1200   27.5900   34.0500 C   0  0  0  0  0  0  0  0  0  0  0  0
   29.1500   27.3400   35.0300 C   0  0  0  0  0  0  0  0  0  0  0  0
   27.8800   26.8900   34.6600 C   0  0  0  0  0  0  0  0  0  0  0  0
   27.4800   26.6100   33.3700 N   0  0  0  0  0  0  0  0  0  0  0  0
   31.0037   28.2601   38.2313 C   0  0  0  0  0  0  0  0  0  0  0  0
   31.7779   29.3664   38.6402 C   0  0  0  0  0  0  0  0  0  0  0  0
   32.0695   29.4982   39.9958 C   0  0  0  0  0  0  0  0  0  0  0  0
   32.8515   30.5706   40.6570 C   0  0  0  0  0  0  0  0  0  0  0  0
   32.8137   30.1827   42.0687 N   0  0  0  0  0  0  0  0  0  0  0  0
   33.4418   30.9196   43.1294 C   0  0  0  0  0  0  0  0  0  0  0  0
   33.3542   30.5064   44.3172 O   0  0  0  0  0  0  0  0  0  0  0  0
   34.2032   32.1770   42.8465 C   0  0  0  0  0  0  0  0  0  0  0  0
   32.0567   28.9486   42.2839 C   0  0  0  0  0  0  0  0  0  0  0  0
   31.6186   28.5819   40.9127 C   0  0  0  0  0  0  0  0  0  0  0  0
   30.8504   27.4904   40.4978 C   0  0  0  0  0  0  0  0  0  0  0  0
   30.5672   27.3625   39.1691 N   0  0  0  0  0  0  0  0  0  0  0  0
   30.3412   26.4777   41.4741 C   0  0  0  0  0  0  0  0  0  0  0  0
   24.6739   26.9931   37.0934 H   0  0  0  0  0  0  0  0  0  0  0  0
   23.6001   26.0040   36.0503 H   0  0  0  0  0  0  0  0  0  0  0  0
   32.5450   28.7428   36.0533 H   0  0  0  0  0  0  0  0  0  0  0  0
   32.1361   28.3132   33.6956 H   0  0  0  0  0  0  0  0  0  0  0  0
   29.9379   27.4164   32.9984 H   0  0  0  0  0  0  0  0  0  0  0  0
   26.5962   27.0149   32.9873 H   0  0  0  0  0  0  0  0  0  0  0  0
   28.1242   26.1385   32.6979 H   0  0  0  0  0  0  0  0  0  0  0  0
   32.1261   30.1107   37.9356 H   0  0  0  0  0  0  0  0  0  0  0  0
   32.3614   31.5566   40.5106 H   0  0  0  0  0  0  0  0  0  0  0  0
   33.8972   30.5771   40.2824 H   0  0  0  0  0  0  0  0  0  0  0  0
   35.0442   31.9578   42.1563 H   0  0  0  0  0  0  0  0  0  0  0  0
   33.5292   32.9256   42.3807 H   0  0  0  0  0  0  0  0  0  0  0  0
   34.6150   32.6039   43.7857 H   0  0  0  0  0  0  0  0  0  0  0  0
   31.1791   29.1411   42.9372 H   0  0  0  0  0  0  0  0  0  0  0  0
   32.7133   28.1601   42.7094 H   0  0  0  0  0  0  0  0  0  0  0  0
   29.6840   26.9724   42.2198 H   0  0  0  0  0  0  0  0  0  0  0  0
   29.7569   25.6919   40.9501 H   0  0  0  0  0  0  0  0  0  0  0  0
   31.1948   25.9978   41.9972 H   0  0  0  0  0  0  0  0  0  0  0  0
  1  2  1  0
  2  3  2  0
  2  4  1  0
  4  5  2  0
  5  6  1  0
  6  7  2  0
  7  8  1  0
  8  9  2  0
  9 10  1  0
 10 11  2  0
 11 12  1  0
 12 13  2  0
 13 14  1  0
  8 15  1  0
 15 16  2  0
 16 17  1  0
 17 18  1  0
 18 19  1  0
 19 20  1  0
 20 21  2  0
 20 22  1  0
 19 23  1  0
 23 24  1  0
 24 25  1  0
 25 26  2  0
 25 27  1  0
 13  4  1  0
 26 15  1  0
 12  7  1  0
 24 17  2  0
  1 28  1  0
  1 29  1  0
  9 30  1  0
 10 31  1  0
 11 32  1  0
 14 33  1  0
 14 34  1  0
 16 35  1  0
 18 36  1  0
 18 37  1  0
 22 38  1  0
 22 39  1  0
 22 40  1  0
 23 41  1  0
 23 42  1  0
 27 43  1  0
 27 44  1  0
 27 45  1  0
M  END
$$$$
confid_2
     RDKit          3D

 45 48  0  0  0  0  0  0  0  0999 V2000
   24.5500   26.3900   36.2500 N   0  0  0  0  0  0  0  0  0  0  0  0
   25.6000   26.1300   35.4000 C   0  0  0  0  0  0  0  0  0  0  0  0
   25.4300   25.4300   34.4200 O   0  0  0  0  0  0  0  0  0  0  0  0
   26.9800   26.6300   35.7100 C   0  0  0  0  0  0  0  0  0  0  0  0
   27.3200   26.8200   36.9800 N   0  0  0  0  0  0  0  0  0  0  0  0
   28.4700   27.4000   37.3100 N   0  0  0  0  0  0  0  0  0  0  0  0
   29.4000   27.6300   36.3700 C   0  0  0  0  0  0  0  0  0  0  0  0
   30.6600   28.0500   36.8000 C   0  0  0  0  0  0  0  0  0  0  0  0
   31.5700   28.3600   35.7800 C   0  0  0  0  0  0  0  0  0  0  0  0
   31.3700   28.1000   34.4300 C   0  0  0  0  0  0  0  0  0  0  0  0
   30.1200   27.5900   34.0500 C   0  0  0  0  0  0  0  0  0  0  0  0
   29.1500   27.3400   35.0300 C   0  0  0  0  0  0  0  0  0  0  0  0
   27.8800   26.8900   34.6600 C   0  0  0  0  0  0  0  0  0  0  0  0
   27.4800   26.6100   33.3700 N   0  0  0  0  0  0  0  0  0  0  0  0
   31.0169   28.2943   38.2188 C   0  0  0  0  0  0  0  0  0  0  0  0
   30.7172   27.3485   39.2208 C   0  0  0  0  0  0  0  0  0  0  0  0
   31.1013   27.6353   40.5283 C   0  0  0  0  0  0  0  0  0  0  0  0
   30.9007   26.8016   41.7380 C   0  0  0  0  0  0  0  0  0  0  0  0
   31.5166   27.6045   42.7967 N   0  0  0  0  0  0  0  0  0  0  0  0
   31.5767   27.2162   44.1780 C   0  0  0  0  0  0  0  0  0  0  0  0
   32.1294   27.9753   45.0191 O   0  0  0  0  0  0  0  0  0  0  0  0
   30.9907   25.9179   44.6383 C   0  0  0  0  0  0  0  0  0  0  0  0
   32.0717   28.8597   42.2881 C   0  0  0  0  0  0  0  0  0  0  0  0
   31.7641   28.7972   40.8361 C   0  0  0  0  0  0  0  0  0  0  0  0
   32.0720   29.7196   39.8317 C   0  0  0  0  0  0  0  0  0  0  0  0
   31.6928   29.4376   38.5513 N   0  0  0  0  0  0  0  0  0  0  0  0
   32.8080   30.9865   40.1344 C   0  0  0  0  0  0  0  0  0  0  0  0
   24.6739   26.9931   37.0934 H   0  0  0  0  0  0  0  0  0  0  0  0
   23.6001   26.0040   36.0503 H   0  0  0  0  0  0  0  0  0  0  0  0
   32.5369   28.7614   36.0588 H   0  0  0  0  0  0  0  0  0  0  0  0
   32.1346   28.3175   33.6952 H   0  0  0  0  0  0  0  0  0  0  0  0
   29.9375   27.4173   32.9983 H   0  0  0  0  0  0  0  0  0  0  0  0
   26.5962   27.0149   32.9873 H   0  0  0  0  0  0  0  0  0  0  0  0
   28.1242   26.1386   32.6978 H   0  0  0  0  0  0  0  0  0  0  0  0
   30.2234   26.4129   38.9910 H   0  0  0  0  0  0  0  0  0  0  0  0
   31.4258   25.8285   41.6316 H   0  0  0  0  0  0  0  0  0  0  0  0
   29.8173   26.6591   41.9368 H   0  0  0  0  0  0  0  0  0  0  0  0
   31.4893   25.0759   44.1147 H   0  0  0  0  0  0  0  0  0  0  0  0
   29.9036   25.8985   44.4160 H   0  0  0  0  0  0  0  0  0  0  0  0
   31.1330   25.7913   45.7326 H   0  0  0  0  0  0  0  0  0  0  0  0
   33.1694   28.8938   42.4550 H   0  0  0  0  0  0  0  0  0  0  0  0
   31.5632   29.7278   42.7591 H   0  0  0  0  0  0  0  0  0  0  0  0
   32.9364   31.5917   39.2120 H   0  0  0  0  0  0  0  0  0  0  0  0
   33.8107   30.7483   40.5470 H   0  0  0  0  0  0  0  0  0  0  0  0
   32.2379   31.5847   40.8758 H   0  0  0  0  0  0  0  0  0  0  0  0
  1  2  1  0
  2  3  2  0
  2  4  1  0
  4  5  2  0
  5  6  1  0
  6  7  2  0
  7  8  1  0
  8  9  2  0
  9 10  1  0
 10 11  2  0
 11 12  1  0
 12 13  2  0
 13 14  1  0
  8 15  1  0
 15 16  2  0
 16 17  1  0
 17 18  1  0
 18 19  1  0
 19 20  1  0
 20 21  2  0
 20 22  1  0
 19 23  1  0
 23 24  1  0
 24 25  1  0
 25 26  2  0
 25 27  1  0
 13  4  1  0
 26 15  1  0
 12  7  1  0
 24 17  2  0
  1 28  1  0
  1 29  1  0
  9 30  1  0
 10 31  1  0
 11 32  1  0
 14 33  1  0
 14 34  1  0
 16 35  1  0
 18 36  1  0
 18 37  1  0
 22 38  1  0
 22 39  1  0
 22 40  1  0
 23 41  1  0
 23 42  1  0
 27 43  1  0
 27 44  1  0
 27 45  1  0
M  END
$$$$
confid_3
     RDKit          3D

 45 48  0  0  0  0  0  0  0  0999 V2000
   24.5500   26.3900   36.2500 N   0  0  0  0  0  0  0  0  0  0  0  0
   25.6000   26.1300   35.4000 C   0  0  0  0  0  0  0  0  0  0  0  0
   25.4300   25.4300   34.4200 O   0  0  0  0  0  0  0  0  0  0  0  0
   26.9800   26.6300   35.7100 C   0  0  0  0  0  0  0  0  0  0  0  0
   27.3200   26.8200   36.9800 N   0  0  0  0  0  0  0  0  0  0  0  0
   28.4700   27.4000   37.3100 N   0  0  0  0  0  0  0  0  0  0  0  0
   29.4000   27.6300   36.3700 C   0  0  0  0  0  0  0  0  0  0  0  0
   30.6600   28.0500   36.8000 C   0  0  0  0  0  0  0  0  0  0  0  0
   31.5700   28.3600   35.7800 C   0  0  0  0  0  0  0  0  0  0  0  0
   31.3700   28.1000   34.4300 C   0  0  0  0  0  0  0  0  0  0  0  0
   30.1200   27.5900   34.0500 C   0  0  0  0  0  0  0  0  0  0  0  0
   29.1500   27.3400   35.0300 C   0  0  0  0  0  0  0  0  0  0  0  0
   27.8800   26.8900   34.6600 C   0  0  0  0  0  0  0  0  0  0  0  0
   27.4800   26.6100   33.3700 N   0  0  0  0  0  0  0  0  0  0  0  0
   31.0169   28.2943   38.2188 C   0  0  0  0  0  0  0  0  0  0  0  0
   30.7173   27.3485   39.2208 C   0  0  0  0  0  0  0  0  0  0  0  0
   31.1015   27.6353   40.5283 C   0  0  0  0  0  0  0  0  0  0  0  0
   30.9013   26.8016   41.7381 C   0  0  0  0  0  0  0  0  0  0  0  0
   31.5167   27.6039   42.7964 N   0  0  0  0  0  0  0  0  0  0  0  0
   31.5650   27.1943   44.1721 C   0  0  0  0  0  0  0  0  0  0  0  0
   31.0592   26.0920   44.5161 O   0  0  0  0  0  0  0  0  0  0  0  0
   32.2096   28.0592   45.2100 C   0  0  0  0  0  0  0  0  0  0  0  0
   32.0720   28.8600   42.2878 C   0  0  0  0  0  0  0  0  0  0  0  0
   31.7642   28.7974   40.8360 C   0  0  0  0  0  0  0  0  0  0  0  0
   32.0720   29.7198   39.8316 C   0  0  0  0  0  0  0  0  0  0  0  0
   31.6927   29.4377   38.5513 N   0  0  0  0  0  0  0  0  0  0  0  0
   32.8078   30.9867   40.1344 C   0  0  0  0  0  0  0  0  0  0  0  0
   24.6739   26.9931   37.0934 H   0  0  0  0  0  0  0  0  0  0  0  0
   23.6001   26.0040   36.0503 H   0  0  0  0  0  0  0  0  0  0  0  0
   32.5369   28.7614   36.0588 H   0  0  0  0  0  0  0  0  0  0  0  0
   32.1346   28.3175   33.6952 H   0  0  0  0  0  0  0  0  0  0  0  0
   29.9375   27.4174   32.9983 H   0  0  0  0  0  0  0  0  0  0  0  0
   26.5962   27.0149   32.9873 H   0  0  0  0  0  0  0  0  0  0  0  0
   28.1242   26.1386   32.6978 H   0  0  0  0  0  0  0  0  0  0  0  0
   30.2236   26.4129   38.9910 H   0  0  0  0  0  0  0  0  0  0  0  0
   31.4261   25.8281   41.6337 H   0  0  0  0  0  0  0  0  0  0  0  0
   29.8182   26.6582   41.9391 H   0  0  0  0  0  0  0  0  0  0  0  0
   31.6915   29.0396   45.2542 H   0  0  0  0  0  0  0  0  0  0  0  0
   32.1502   27.5794   46.2101 H   0  0  0  0  0  0  0  0  0  0  0  0
   33.2778   28.2176   44.9541 H   0  0  0  0  0  0  0  0  0  0  0  0
   31.5630   29.7287   42.7569 H   0  0  0  0  0  0  0  0  0  0  0  0
   33.1699   28.8946   42.4525 H   0  0  0  0  0  0  0  0  0  0  0  0
   32.9360   31.5920   39.2121 H   0  0  0  0  0  0  0  0  0  0  0  0
   33.8107   30.7485   40.5468 H   0  0  0  0  0  0  0  0  0  0  0  0
   32.2378   31.5847   40.8761 H   0  0  0  0  0  0  0  0  0  0  0  0
  1  2  1  0
  2  3  2  0
  2  4  1  0
  4  5  2  0
  5  6  1  0
  6  7  2  0
  7  8  1  0
  8  9  2  0
  9 10  1  0
 10 11  2  0
 11 12  1  0
 12 13  2  0
 13 14  1  0
  8 15  1  0
 15 16  2  0
 16 17  1  0
 17 18  1  0
 18 19  1  0
 19 20  1  0
 20 21  2  0
 20 22  1  0
 19 23  1  0
 23 24  1  0
 24 25  1  0
 25 26  2  0
 25 27  1  0
 13  4  1  0
 26 15  1  0
 12  7  1  0
 24 17  2  0
  1 28  1  0
  1 29  1  0
  9 30  1  0
 10 31  1  0
 11 32  1  0
 14 33  1  0
 14 34  1  0
 16 35  1  0
 18 36  1  0
 18 37  1  0
 22 38  1  0
 22 39  1  0
 22 40  1  0
 23 41  1  0
 23 42  1  0
 27 43  1  0
 27 44  1  0
 27 45  1  0
M  END
$$$$
confid_4
     RDKit          3D

 45 48  0  0  0  0  0  0  0  0999 V2000
   24.5500   26.3900   36.2500 N   0  0  0  0  0  0  0  0  0  0  0  0
   25.6000   26.1300   35.4000 C   0  0  0  0  0  0  0  0  0  0  0  0
   25.4300   25.4300   34.4200 O   0  0  0  0  0  0  0  0  0  0  0  0
   26.9800   26.6300   35.7100 C   0  0  0  0  0  0  0  0  0  0  0  0
   27.3200   26.8200   36.9800 N   0  0  0  0  0  0  0  0  0  0  0  0
   28.4700   27.4000   37.3100 N   0  0  0  0  0  0  0  0  0  0  0  0
   29.4000   27.6300   36.3700 C   0  0  0  0  0  0  0  0  0  0  0  0
   30.6600   28.0500   36.8000 C   0  0  0  0  0  0  0  0  0  0  0  0
   31.5700   28.3600   35.7800 C   0  0  0  0  0  0  0  0  0  0  0  0
   31.3700   28.1000   34.4300 C   0  0  0  0  0  0  0  0  0  0  0  0
   30.1200   27.5900   34.0500 C   0  0  0  0  0  0  0  0  0  0  0  0
   29.1500   27.3400   35.0300 C   0  0  0  0  0  0  0  0  0  0  0  0
   27.8800   26.8900   34.6600 C   0  0  0  0  0  0  0  0  0  0  0  0
   27.4800   26.6100   33.3700 N   0  0  0  0  0  0  0  0  0  0  0  0
   31.0037   28.2600   38.2313 C   0  0  0  0  0  0  0  0  0  0  0  0
   31.7778   29.3665   38.6402 C   0  0  0  0  0  0  0  0  0  0  0  0
   32.0695   29.4982   39.9958 C   0  0  0  0  0  0  0  0  0  0  0  0
   32.8512   30.5708   40.6572 C   0  0  0  0  0  0  0  0  0  0  0  0
   32.8137   30.1833   42.0682 N   0  0  0  0  0  0  0  0  0  0  0  0
   33.4504   30.9367   43.1120 C   0  0  0  0  0  0  0  0  0  0  0  0
   34.0819   31.9904   42.8289 O   0  0  0  0  0  0  0  0  0  0  0  0
   33.3764   30.4891   44.5386 C   0  0  0  0  0  0  0  0  0  0  0  0
   32.0568   28.9483   42.2838 C   0  0  0  0  0  0  0  0  0  0  0  0
   31.6189   28.5817   40.9126 C   0  0  0  0  0  0  0  0  0  0  0  0
   30.8508   27.4902   40.4978 C   0  0  0  0  0  0  0  0  0  0  0  0
   30.5674   27.3623   39.1690 N   0  0  0  0  0  0  0  0  0  0  0  0
   30.3419   26.4774   41.4741 C   0  0  0  0  0  0  0  0  0  0  0  0
   24.6739   26.9932   37.0934 H   0  0  0  0  0  0  0  0  0  0  0  0
   23.6001   26.0040   36.0503 H   0  0  0  0  0  0  0  0  0  0  0  0
   32.5450   28.7428   36.0534 H   0  0  0  0  0  0  0  0  0  0  0  0
   32.1361   28.3132   33.6956 H   0  0  0  0  0  0  0  0  0  0  0  0
   29.9379   27.4164   32.9984 H   0  0  0  0  0  0  0  0  0  0  0  0
   28.1242   26.1385   32.6979 H   0  0  0  0  0  0  0  0  0  0  0  0
   26.5962   27.0149   32.9873 H   0  0  0  0  0  0  0  0  0  0  0  0
   32.1257   30.1109   37.9357 H   0  0  0  0  0  0  0  0  0  0  0  0
   32.3619   31.5576   40.5123 H   0  0  0  0  0  0  0  0  0  0  0  0
   33.8975   30.5790   40.2841 H   0  0  0  0  0  0  0  0  0  0  0  0
   33.9254   31.1943   45.1982 H   0  0  0  0  0  0  0  0  0  0  0  0
   33.8304   29.4814   44.6385 H   0  0  0  0  0  0  0  0  0  0  0  0
   32.3160   30.4499   44.8637 H   0  0  0  0  0  0  0  0  0  0  0  0
   31.1780   29.1397   42.9356 H   0  0  0  0  0  0  0  0  0  0  0  0
   32.7130   28.1587   42.7075 H   0  0  0  0  0  0  0  0  0  0  0  0
   29.7581   25.6912   40.9501 H   0  0  0  0  0  0  0  0  0  0  0  0
   29.6844   26.9718   42.2196 H   0  0  0  0  0  0  0  0  0  0  0  0
   31.1956   25.9980   41.9974 H   0  0  0  0  0  0  0  0  0  0  0  0
  1  2  1  0
  2  3  2  0
  2  4  1  0
  4  5  2  0
  5  6  1  0
  6  7  2  0
  7  8  1  0
  8  9  2  0
  9 10  1  0
 10 11  2  0
 11 12  1  0
 12 13  2  0
 13 14  1  0
  8 15  1  0
 15 16  2  0
 16 17  1  0
 17 18  1  0
 18 19  1  0
 19 20  1  0
 20 21  2  0
 20 22  1  0
 19 23  1  0
 23 24  1  0
 24 25  1  0
 25 26  2  0
 25 27  1  0
 13  4  1  0
 26 15  1  0
 12  7  1  0
 24 17  2  0
  1 28  1  0
  1 29  1  0
  9 30  1  0
 10 31  1  0
 11 32  1  0
 14 33  1  0
 14 34  1  0
 16 35  1  0
 18 36  1  0
 18 37  1  0
 22 38  1  0
 22 39  1  0
 22 40  1  0
 23 41  1  0
 23 42  1  0
 27 43  1  0
 27 44  1  0
 27 45  1  0
M  END
$$$$
confid_5
     RDKit          3D

 45 48  0  0  0  0  0  0  0  0999 V2000
   24.5500   26.3900   36.2500 N   0  0  0  0  0  0  0  0  0  0  0  0
   25.6000   26.1300   35.4000 C   0  0  0  0  0  0  0  0  0  0  0  0
   25.4300   25.4300   34.4200 O   0  0  0  0  0  0  0  0  0  0  0  0
   26.9800   26.6300   35.7100 C   0  0  0  0  0  0  0  0  0  0  0  0
   27.3200   26.8200   36.9800 N   0  0  0  0  0  0  0  0  0  0  0  0
   28.4700   27.4000   37.3100 N   0  0  0  0  0  0  0  0  0  0  0  0
   29.4000   27.6300   36.3700 C   0  0  0  0  0  0  0  0  0  0  0  0
   30.6600   28.0500   36.8000 C   0  0  0  0  0  0  0  0  0  0  0  0
   31.5700   28.3600   35.7800 C   0  0  0  0  0  0  0  0  0  0  0  0
   31.3700   28.1000   34.4300 C   0  0  0  0  0  0  0  0  0  0  0  0
   30.1200   27.5900   34.0500 C   0  0  0  0  0  0  0  0  0  0  0  0
   29.1500   27.3400   35.0300 C   0  0  0  0  0  0  0  0  0  0  0  0
   27.8800   26.8900   34.6600 C   0  0  0  0  0  0  0  0  0  0  0  0
   27.4800   26.6100   33.3700 N   0  0  0  0  0  0  0  0  0  0  0  0
   30.9996   28.3125   38.2242 C   0  0  0  0  0  0  0  0  0  0  0  0
   32.2911   28.0361   38.7191 C   0  0  0  0  0  0  0  0  0  0  0  0
   32.5539   28.3117   40.0588 C   0  0  0  0  0  0  0  0  0  0  0  0
   33.8220   28.1017   40.7984 C   0  0  0  0  0  0  0  0  0  0  0  0
   33.4963   28.5644   42.1484 N   0  0  0  0  0  0  0  0  0  0  0  0
   34.4345   28.5531   43.2356 C   0  0  0  0  0  0  0  0  0  0  0  0
   35.6066   28.1285   43.0479 O   0  0  0  0  0  0  0  0  0  0  0  0
   34.0417   29.0397   44.5957 C   0  0  0  0  0  0  0  0  0  0  0  0
   32.1134   29.0344   42.2546 C   0  0  0  0  0  0  0  0  0  0  0  0
   31.5875   28.8374   40.8794 C   0  0  0  0  0  0  0  0  0  0  0  0
   30.3103   29.1072   40.3798 C   0  0  0  0  0  0  0  0  0  0  0  0
   30.0558   28.8377   39.0665 N   0  0  0  0  0  0  0  0  0  0  0  0
   29.2358   29.6778   41.2503 C   0  0  0  0  0  0  0  0  0  0  0  0
   24.6739   26.9931   37.0934 H   0  0  0  0  0  0  0  0  0  0  0  0
   23.6001   26.0039   36.0504 H   0  0  0  0  0  0  0  0  0  0  0  0
   32.5275   28.7868   36.0514 H   0  0  0  0  0  0  0  0  0  0  0  0
   32.1339   28.3183   33.6949 H   0  0  0  0  0  0  0  0  0  0  0  0
   29.9362   27.3931   33.0015 H   0  0  0  0  0  0  0  0  0  0  0  0
   27.5825   27.3394   32.6301 H   0  0  0  0  0  0  0  0  0  0  0  0
   27.4183   25.6173   33.0515 H   0  0  0  0  0  0  0  0  0  0  0  0
   33.0611   27.6071   38.0905 H   0  0  0  0  0  0  0  0  0  0  0  0
   34.0932   27.0245   40.8119 H   0  0  0  0  0  0  0  0  0  0  0  0
   34.6360   28.7188   40.3619 H   0  0  0  0  0  0  0  0  0  0  0  0
   33.1978   28.4309   44.9815 H   0  0  0  0  0  0  0  0  0  0  0  0
   34.8945   28.9548   45.3023 H   0  0  0  0  0  0  0  0  0  0  0  0
   33.7323   30.1039   44.5373 H   0  0  0  0  0  0  0  0  0  0  0  0
   31.5467   28.4143   42.9812 H   0  0  0  0  0  0  0  0  0  0  0  0
   32.0881   30.1098   42.5311 H   0  0  0  0  0  0  0  0  0  0  0  0
   28.2989   29.8178   40.6705 H   0  0  0  0  0  0  0  0  0  0  0  0
   29.0315   28.9879   42.0958 H   0  0  0  0  0  0  0  0  0  0  0  0
   29.5586   30.6624   41.6490 H   0  0  0  0  0  0  0  0  0  0  0  0
  1  2  1  0
  2  3  2  0
  2  4  1  0
  4  5  2  0
  5  6  1  0
  6  7  2  0
  7  8  1  0
  8  9  2  0
  9 10  1  0
 10 11  2  0
 11 12  1  0
 12 13  2  0
 13 14  1  0
  8 15  1  0
 15 16  2  0
 16 17  1  0
 17 18  1  0
 18 19  1  0
 19 20  1  0
 20 21  2  0
 20 22  1  0
 19 23  1  0
 23 24  1  0
 24 25  1  0
 25 26  2  0
 25 27  1  0
 13  4  1  0
 26 15  1  0
 12  7  1  0
 24 17  2  0
  1 28  1  0
  1 29  1  0
  9 30  1  0
 10 31  1  0
 11 32  1  0
 14 33  1  0
 14 34  1  0
 16 35  1  0
 18 36  1  0
 18 37  1  0
 22 38  1  0
 22 39  1  0
 22 40  1  0
 23 41  1  0
 23 42  1  0
 27 43  1  0
 27 44  1  0
 27 45  1  0
M  END
$$$$
