confid_0
     RDKit          3D

 42 44  0  0  0  0  0  0  0  0999 V2000
   24.5700   26.8800   35.5900 N   0  0  0  0  0  0  0  0  0  0  0  0
   25.5000   26.4000   34.6900 C   0  0  0  0  0  0  0  0  0  0  0  0
   25.1700   25.5200   33.9100 O   0  0  0  0  0  0  0  0  0  0  0  0
   26.8400   27.0200   34.7400 C   0  0  0  0  0  0  0  0  0  0  0  0
   27.3800   27.2800   35.9400 N   0  0  0  0  0  0  0  0  0  0  0  0
   28.6200   27.7400   36.0300 N   0  0  0  0  0  0  0  0  0  0  0  0
   29.3800   28.0000   34.9600 C   0  0  0  0  0  0  0  0  0  0  0  0
   30.6700   28.5000   35.1300 C   0  0  0  0  0  0  0  0  0  0  0  0
   31.5400   28.6100   34.0300 C   0  0  0  0  0  0  0  0  0  0  0  0
   31.0900   28.2200   32.7700 C   0  0  0  0  0  0  0  0  0  0  0  0
   29.8000   27.7000   32.6000 C   0  0  0  0  0  0  0  0  0  0  0  0
   28.9600   27.5500   33.7100 C   0  0  0  0  0  0  0  0  0  0  0  0
   27.6600   27.0300   33.5900 C   0  0  0  0  0  0  0  0  0  0  0  0
   27.1600   26.7400   32.3400 N   0  0  0  0  0  0  0  0  0  0  0  0
   23.1733   26.5163   35.5804 C   0  0  0  0  0  0  0  0  0  0  0  0
   22.5902   26.1211   34.4174 N   0  0  0  0  0  0  0  0  0  0  0  0
   21.2772   25.7984   34.3298 C   0  0  0  0  0  0  0  0  0  0  0  0
   20.4462   25.8881   35.4482 C   0  0  0  0  0  0  0  0  0  0  0  0
   19.0996   25.5177   35.2777 O   0  0  0  0  0  0  0  0  0  0  0  0
   18.1240   25.3860   36.3055 C   0  0  0  0  0  0  0  0  0  0  0  0
   21.0006   26.3419   36.6689 C   0  0  0  0  0  0  0  0  0  0  0  0
   20.1840   26.5270   37.7880 O   0  0  0  0  0  0  0  0  0  0  0  0
   19.8179   27.8257   38.2437 C   0  0  0  0  0  0  0  0  0  0  0  0
   22.3885   26.6056   36.7527 C   0  0  0  0  0  0  0  0  0  0  0  0
   23.0267   26.9568   38.0744 C   0  0  0  0  0  0  0  0  0  0  0  0
   20.7718   25.3899   33.1397 F   0  0  0  0  0  0  0  0  0  0  0  0
   24.8786   27.5833   36.2987 H   0  0  0  0  0  0  0  0  0  0  0  0
   31.0178   28.7888   36.1143 H   0  0  0  0  0  0  0  0  0  0  0  0
   32.5416   28.9991   34.1593 H   0  0  0  0  0  0  0  0  0  0  0  0
   31.7454   28.3188   31.9142 H   0  0  0  0  0  0  0  0  0  0  0  0
   29.5013   27.4243   31.5992 H   0  0  0  0  0  0  0  0  0  0  0  0
   27.7097   26.1833   31.6492 H   0  0  0  0  0  0  0  0  0  0  0  0
   26.1710   26.9652   32.0922 H   0  0  0  0  0  0  0  0  0  0  0  0
   18.4906   24.7041   37.1016 H   0  0  0  0  0  0  0  0  0  0  0  0
   17.8659   26.3810   36.7211 H   0  0  0  0  0  0  0  0  0  0  0  0
   17.2025   24.9486   35.8700 H   0  0  0  0  0  0  0  0  0  0  0  0
   19.2893   28.3750   37.4363 H   0  0  0  0  0  0  0  0  0  0  0  0
   19.1385   27.7267   39.1147 H   0  0  0  0  0  0  0  0  0  0  0  0
   20.7124   28.4032   38.5525 H   0  0  0  0  0  0  0  0  0  0  0  0
   24.0046   26.4417   38.1813 H   0  0  0  0  0  0  0  0  0  0  0  0
   22.4048   26.6269   38.9322 H   0  0  0  0  0  0  0  0  0  0  0  0
   23.1810   28.0543   38.1358 H   0  0  0  0  0  0  0  0  0  0  0  0
  1  2  1  0
  2  3  2  0
  2  4  1  0
  4  5  2  0
  5  6  1  0
  6  7  2  0
  7  8  1  0
  8  9  2  0
  9 10  1  0
 10 11  2  0
 11 12  1  0
 12 13  2  0
 13 14  1  0
  1 15  1  0
 15 16  2  0
 16 17  1  0
 17 18  2  0
 18 19  1  0
 19 20  1  0
 18 21  1  0
 21 22  1  0
 22 23  1  0
 21 24  2  0
 24 25  1  0
 17 26  1  0
 13  4  1  0
 24 15  1  0
 12  7  1  0
  1 27  1  0
  8 28  1  0
  9 29  1  0
 10 30  1  0
 11 31  1  0
 14 32  1  0
 14 33  1  0
 20 34  1  0
 20 35  1  0
 20 36  1  0
 23 37  1  0
 23 38  1  0
 23 39  1  0
 25 40  1  0
 25 41  1  0
 25 42  1  0
M  END
$$$$
confid_1
     RDKit          3D

 42 44  0  0  0  0  0  0  0  0999 V2000
   24.5700   26.8800   35.5900 N   0  0  0  0  0  0  0  0  0  0  0  0
   25.5000   26.4000   34.6900 C   0  0  0  0  0  0  0  0  0  0  0  0
   25.1700   25.5200   33.9100 O   0  0  0  0  0  0  0  0  0  0  0  0
   26.8400   27.0200   34.7400 C   0  0  0  0  0  0  0  0  0  0  0  0
   27.3800   27.2800   35.9400 N   0  0  0  0  0  0  0  0  0  0  0  0
   28.6200   27.7400   36.0300 N   0  0  0  0  0  0  0  0  0  0  0  0
   29.3800   28.0000   34.9600 C   0  0  0  0  0  0  0  0  0  0  0  0
   30.6700   28.5000   35.1300 C   0  0  0  0  0  0  0  0  0  0  0  0
   31.5400   28.6100   34.0300 C   0  0  0  0  0  0  0  0  0  0  0  0
   31.0900   28.2200   32.7700 C   0  0  0  0  0  0  0  0  0  0  0  0
   29.8000   27.7000   32.6000 C   0  0  0  0  0  0  0  0  0  0  0  0
   28.9600   27.5500   33.7100 C   0  0  0  0  0  0  0  0  0  0  0  0
   27.6600   27.0300   33.5900 C   0  0  0  0  0  0  0  0  0  0  0  0
   27.1600   26.7400   32.3400 N   0  0  0  0  0  0  0  0  0  0  0  0
   23.3419   26.1952   35.9149 C   0  0  0  0  0  0  0  0  0  0  0  0
   23.2652   24.8502   35.7486 N   0  0  0  0  0  0  0  0  0  0  0  0
   22.1673   24.1275   36.0732 C   0  0  0  0  0  0  0  0  0  0  0  0
   21.0380   24.7622   36.6317 C   0  0  0  0  0  0  0  0  0  0  0  0
   19.8828   24.0472   36.9941 O   0  0  0  0  0  0  0  0  0  0  0  0
   19.6822   22.6441   36.8628 C   0  0  0  0  0  0  0  0  0  0  0  0
   21.0805   26.1675   36.8284 C   0  0  0  0  0  0  0  0  0  0  0  0
   20.0170   26.8979   37.3987 O   0  0  0  0  0  0  0  0  0  0  0  0
   18.7774   26.3830   37.8725 C   0  0  0  0  0  0  0  0  0  0  0  0
   22.2332   26.8907   36.4442 C   0  0  0  0  0  0  0  0  0  0  0  0
   22.2885   28.3903   36.6220 C   0  0  0  0  0  0  0  0  0  0  0  0
   22.2022   22.7910   35.8558 F   0  0  0  0  0  0  0  0  0  0  0  0
   24.7810   27.7787   36.0800 H   0  0  0  0  0  0  0  0  0  0  0  0
   31.0178   28.7888   36.1143 H   0  0  0  0  0  0  0  0  0  0  0  0
   32.5416   28.9991   34.1593 H   0  0  0  0  0  0  0  0  0  0  0  0
   31.7454   28.3188   31.9142 H   0  0  0  0  0  0  0  0  0  0  0  0
   29.5013   27.4243   31.5992 H   0  0  0  0  0  0  0  0  0  0  0  0
   26.1711   26.9656   32.0920 H   0  0  0  0  0  0  0  0  0  0  0  0
   27.7096   26.1832   31.6493 H   0  0  0  0  0  0  0  0  0  0  0  0
   19.7426   22.3455   35.7951 H   0  0  0  0  0  0  0  0  0  0  0  0
   18.6696   22.3905   37.2376 H   0  0  0  0  0  0  0  0  0  0  0  0
   20.4272   22.0907   37.4722 H   0  0  0  0  0  0  0  0  0  0  0  0
   18.9503   25.6575   38.6949 H   0  0  0  0  0  0  0  0  0  0  0  0
   18.2096   25.9181   37.0395 H   0  0  0  0  0  0  0  0  0  0  0  0
   18.1727   27.2215   38.2745 H   0  0  0  0  0  0  0  0  0  0  0  0
   22.7288   28.8683   35.7215 H   0  0  0  0  0  0  0  0  0  0  0  0
   22.9062   28.6364   37.5108 H   0  0  0  0  0  0  0  0  0  0  0  0
   21.2831   28.8394   36.7548 H   0  0  0  0  0  0  0  0  0  0  0  0
  1  2  1  0
  2  3  2  0
  2  4  1  0
  4  5  2  0
  5  6  1  0
  6  7  2  0
  7  8  1  0
  8  9  2  0
  9 10  1  0
 10 11  2  0
 11 12  1  0
 12 13  2  0
 13 14  1  0
  1 15  1  0
 15 16  2  0
 16 17  1  0
 17 18  2  0
 18 19  1  0
 19 20  1  0
 18 21  1  0
 21 22  1  0
 22 23  1  0
 21 24  2  0
 24 25  1  0
 17 26  1  0
 13  4  1  0
 24 15  1  0
 12  7  1  0
  1 27  1  0
  8 28  1  0
  9 29  1  0
 10 30  1  0
 11 31  1  0
 14 32  1  0
 14 33  1  0
 20 34  1  0
 20 35  1  0
 20 36  1  0
 23 37  1  0
 23 38  1  0
 23 39  1  0
 25 40  1  0
 25 41  1  0
 25 42  1  0
M  END
$$$$
confid_2
     RDKit          3D

 42 44  0  0  0  0  0  0  0  0999 V2000
   24.5700   26.8800   35.5900 N   0  0  0  0  0  0  0  0  0  0  0  0
   25.5000   26.4000   34.6900 C   0  0  0  0  0  0  0  0  0  0  0  0
   25.1700   25.5200   33.9100 O   0  0  0  0  0  0  0  0  0  0  0  0
   26.8400   27.0200   34.7400 C   0  0  0  0  0  0  0  0  0  0  0  0
   27.3800   27.2800   35.9400 N   0  0  0  0  0  0  0  0  0  0  0  0
   28.6200   27.7400   36.0300 N   0  0  0  0  0  0  0  0  0  0  0  0
   29.3800   28.0000   34.9600 C   0  0  0  0  0  0  0  0  0  0  0  0
   30.6700   28.5000   35.1300 C   0  0  0  0  0  0  0  0  0  0  0  0
   31.5400   28.6100   34.0300 C   0  0  0  0  0  0  0  0  0  0  0  0
   31.0900   28.2200   32.7700 C   0  0  0  0  0  0  0  0  0  0  0  0
   29.8000   27.7000   32.6000 C   0  0  0  0  0  0  0  0  0  0  0  0
   28.9600   27.5500   33.7100 C   0  0  0  0  0  0  0  0  0  0  0  0
   27.6600   27.0300   33.5900 C   0  0  0  0  0  0  0  0  0  0  0  0
   27.1600   26.7400   32.3400 N   0  0  0  0  0  0  0  0  0  0  0  0
   23.2358   26.3464   35.7149 C   0  0  0  0  0  0  0  0  0  0  0  0
   23.0296   25.0164   35.5391 N   0  0  0  0  0  0  0  0  0  0  0  0
   21.8126   24.4361   35.6623 C   0  0  0  0  0  0  0  0  0  0  0  0
   20.6844   25.2148   35.9943 C   0  0  0  0  0  0  0  0  0  0  0  0
   19.4061   24.6502   36.1461 O   0  0  0  0  0  0  0  0  0  0  0  0
   19.0629   23.2797   35.9680 C   0  0  0  0  0  0  0  0  0  0  0  0
   20.8587   26.6105   36.1853 C   0  0  0  0  0  0  0  0  0  0  0  0
   19.8022   27.4784   36.5331 O   0  0  0  0  0  0  0  0  0  0  0  0
   18.4148   27.1610   36.5912 C   0  0  0  0  0  0  0  0  0  0  0  0
   22.1430   27.1809   36.0302 C   0  0  0  0  0  0  0  0  0  0  0  0
   22.3466   28.6680   36.2063 C   0  0  0  0  0  0  0  0  0  0  0  0
   21.7262   23.0983   35.4622 F   0  0  0  0  0  0  0  0  0  0  0  0
   24.8198   27.7141   36.1689 H   0  0  0  0  0  0  0  0  0  0  0  0
   31.0176   28.7890   36.1143 H   0  0  0  0  0  0  0  0  0  0  0  0
   32.5414   28.9994   34.1591 H   0  0  0  0  0  0  0  0  0  0  0  0
   31.7453   28.3193   31.9139 H   0  0  0  0  0  0  0  0  0  0  0  0
   29.5015   27.4244   31.5992 H   0  0  0  0  0  0  0  0  0  0  0  0
   27.7101   26.1841   31.6490 H   0  0  0  0  0  0  0  0  0  0  0  0
   26.1708   26.9645   32.0921 H   0  0  0  0  0  0  0  0  0  0  0  0
   19.2879   22.9584   34.9284 H   0  0  0  0  0  0  0  0  0  0  0  0
   19.6095   22.6473   36.6998 H   0  0  0  0  0  0  0  0  0  0  0  0
   17.9741   23.1566   36.1413 H   0  0  0  0  0  0  0  0  0  0  0  0
   18.0683   26.7511   35.6191 H   0  0  0  0  0  0  0  0  0  0  0  0
   17.8448   28.0894   36.7974 H   0  0  0  0  0  0  0  0  0  0  0  0
   18.2171   26.4442   37.4179 H   0  0  0  0  0  0  0  0  0  0  0  0
   23.0302   29.0578   35.4222 H   0  0  0  0  0  0  0  0  0  0  0  0
   22.7847   28.8669   37.2069 H   0  0  0  0  0  0  0  0  0  0  0  0
   21.3998   29.2390   36.1107 H   0  0  0  0  0  0  0  0  0  0  0  0
  1  2  1  0
  2  3  2  0
  2  4  1  0
  4  5  2  0
  5  6  1  0
  6  7  2  0
  7  8  1  0
  8  9  2  0
  9 10  1  0
 10 11  2  0
 11 12  1  0
 12 13  2  0
 13 14  1  0
  1 15  1  0
 15 16  2  0
 16 17  1  0
 17 18  2  0
 18 19  1  0
 19 20  1  0
 18 21  1  0
 21 22  1  0
 22 23  1  0
 21 24  2  0
 24 25  1  0
 17 26  1  0
 13  4  1  0
 24 15  1  0
 12  7  1  0
  1 27  1  0
  8 28  1  0
  9 29  1  0
 10 30  1  0
 11 31  1  0
 14 32  1  0
 14 33  1  0
 20 34  1  0
 20 35  1  0
 20 36  1  0
 23 37  1  0
 23 38  1  0
 23 39  1  0
 25 40  1  0
 25 41  1  0
 25 42  1  0
M  END
$$$$
confid_3
     RDKit          3D

 42 44  0  0  0  0  0  0  0  0999 V2000
   24.5700   26.8800   35.5900 N   0  0  0  0  0  0  0  0  0  0  0  0
   25.5000   26.4000   34.6900 C   0  0  0  0  0  0  0  0  0  0  0  0
   25.1700   25.5200   33.9100 O   0  0  0  0  0  0  0  0  0  0  0  0
   26.8400   27.0200   34.7400 C   0  0  0  0  0  0  0  0  0  0  0  0
   27.3800   27.2800   35.9400 N   0  0  0  0  0  0  0  0  0  0  0  0
   28.6200   27.7400   36.0300 N   0  0  0  0  0  0  0  0  0  0  0  0
   29.3800   28.0000   34.9600 C   0  0  0  0  0  0  0  0  0  0  0  0
   30.6700   28.5000   35.1300 C   0  0  0  0  0  0  0  0  0  0  0  0
   31.5400   28.6100   34.0300 C   0  0  0  0  0  0  0  0  0  0  0  0
   31.0900   28.2200   32.7700 C   0  0  0  0  0  0  0  0  0  0  0  0
   29.8000   27.7000   32.6000 C   0  0  0  0  0  0  0  0  0  0  0  0
   28.9600   27.5500   33.7100 C   0  0  0  0  0  0  0  0  0  0  0  0
   27.6600   27.0300   33.5900 C   0  0  0  0  0  0  0  0  0  0  0  0
   27.1600   26.7400   32.3400 N   0  0  0  0  0  0  0  0  0  0  0  0
   23.1735   26.5152   35.5790 C   0  0  0  0  0  0  0  0  0  0  0  0
   22.5901   26.1380   34.4128 N   0  0  0  0  0  0  0  0  0  0  0  0
   21.2756   25.8297   34.3106 C   0  0  0  0  0  0  0  0  0  0  0  0
   20.4359   25.9131   35.4411 C   0  0  0  0  0  0  0  0  0  0  0  0
   19.0636   25.6139   35.3757 O   0  0  0  0  0  0  0  0  0  0  0  0
   18.3443   25.1970   34.2201 C   0  0  0  0  0  0  0  0  0  0  0  0
   21.0059   26.3118   36.6787 C   0  0  0  0  0  0  0  0  0  0  0  0
   20.2543   26.4506   37.8643 O   0  0  0  0  0  0  0  0  0  0  0  0
   18.8546   26.2464   38.0230 C   0  0  0  0  0  0  0  0  0  0  0  0
   22.3902   26.5898   36.7510 C   0  0  0  0  0  0  0  0  0  0  0  0
   23.0200   26.9912   38.0647 C   0  0  0  0  0  0  0  0  0  0  0  0
   20.8052   25.4580   33.0959 F   0  0  0  0  0  0  0  0  0  0  0  0
   24.8787   27.5846   36.2972 H   0  0  0  0  0  0  0  0  0  0  0  0
   31.0177   28.7888   36.1143 H   0  0  0  0  0  0  0  0  0  0  0  0
   32.5416   28.9991   34.1593 H   0  0  0  0  0  0  0  0  0  0  0  0
   31.7454   28.3189   31.9142 H   0  0  0  0  0  0  0  0  0  0  0  0
   29.5013   27.4243   31.5992 H   0  0  0  0  0  0  0  0  0  0  0  0
   27.7096   26.1832   31.6493 H   0  0  0  0  0  0  0  0  0  0  0  0
   26.1710   26.9653   32.0921 H   0  0  0  0  0  0  0  0  0  0  0  0
   18.7518   24.2369   33.8394 H   0  0  0  0  0  0  0  0  0  0  0  0
   17.2822   25.0381   34.4973 H   0  0  0  0  0  0  0  0  0  0  0  0
   18.3854   25.9834   33.4374 H   0  0  0  0  0  0  0  0  0  0  0  0
   18.5802   26.4566   39.0769 H   0  0  0  0  0  0  0  0  0  0  0  0
   18.5920   25.1903   37.8036 H   0  0  0  0  0  0  0  0  0  0  0  0
   18.2870   26.9450   37.3730 H   0  0  0  0  0  0  0  0  0  0  0  0
   23.1629   28.0919   38.0870 H   0  0  0  0  0  0  0  0  0  0  0  0
   24.0020   26.4884   38.1921 H   0  0  0  0  0  0  0  0  0  0  0  0
   22.4019   26.6953   38.9370 H   0  0  0  0  0  0  0  0  0  0  0  0
  1  2  1  0
  2  3  2  0
  2  4  1  0
  4  5  2  0
  5  6  1  0
  6  7  2  0
  7  8  1  0
  8  9  2  0
  9 10  1  0
 10 11  2  0
 11 12  1  0
 12 13  2  0
 13 14  1  0
  1 15  1  0
 15 16  2  0
 16 17  1  0
 17 18  2  0
 18 19  1  0
 19 20  1  0
 18 21  1  0
 21 22  1  0
 22 23  1  0
 21 24  2  0
 24 25  1  0
 17 26  1  0
 13  4  1  0
 24 15  1  0
 12  7  1  0
  1 27  1  0
  8 28  1  0
  9 29  1  0
 10 30  1  0
 11 31  1  0
 14 32  1  0
 14 33  1  0
 20 34  1  0
 20 35  1  0
 20 36  1  0
 23 37  1  0
 23 38  1  0
 23 39  1  0
 25 40  1  0
 25 41  1  0
 25 42  1  0
M  END
$$$$
confid_4
     RDKit          3D

 42 44  0  0  0  0  0  0  0  0999 V2000
   24.5700   26.8800   35.5900 N   0  0  0  0  0  0  0  0  0  0  0  0
   25.5000   26.4000   34.6900 C   0  0  0  0  0  0  0  0  0  0  0  0
   25.1700   25.5200   33.9100 O   0  0  0  0  0  0  0  0  0  0  0  0
   26.8400   27.0200   34.7400 C   0  0  0  0  0  0  0  0  0  0  0  0
   27.3800   27.2800   35.9400 N   0  0  0  0  0  0  0  0  0  0  0  0
   28.6200   27.7400   36.0300 N   0  0  0  0  0  0  0  0  0  0  0  0
   29.3800   28.0000   34.9600 C   0  0  0  0  0  0  0  0  0  0  0  0
   30.6700   28.5000   35.1300 C   0  0  0  0  0  0  0  0  0  0  0  0
   31.5400   28.6100   34.0300 C   0  0  0  0  0  0  0  0  0  0  0  0
   31.0900   28.2200   32.7700 C   0  0  0  0  0  0  0  0  0  0  0  0
   29.8000   27.7000   32.6000 C   0  0  0  0  0  0  0  0  0  0  0  0
   28.9600   27.5500   33.7100 C   0  0  0  0  0  0  0  0  0  0  0  0
   27.6600   27.0300   33.5900 C   0  0  0  0  0  0  0  0  0  0  0  0
   27.1600   26.7400   32.3400 N   0  0  0  0  0  0  0  0  0  0  0  0
   23.3368   26.2014   35.9055 C   0  0  0  0  0  0  0  0  0  0  0  0
   23.2550   24.8536   35.7446 N   0  0  0  0  0  0  0  0  0  0  0  0
   22.1403   24.1468   36.0505 C   0  0  0  0  0  0  0  0  0  0  0  0
   21.0161   24.7844   36.5787 C   0  0  0  0  0  0  0  0  0  0  0  0
   19.8921   23.9828   36.8508 O   0  0  0  0  0  0  0  0  0  0  0  0
   18.5975   24.4442   37.2208 C   0  0  0  0  0  0  0  0  0  0  0  0
   21.0741   26.1800   36.8077 C   0  0  0  0  0  0  0  0  0  0  0  0
   20.0016   26.8385   37.4158 O   0  0  0  0  0  0  0  0  0  0  0  0
   20.0657   27.2912   38.7645 C   0  0  0  0  0  0  0  0  0  0  0  0
   22.2236   26.9069   36.4162 C   0  0  0  0  0  0  0  0  0  0  0  0
   22.2556   28.4120   36.5228 C   0  0  0  0  0  0  0  0  0  0  0  0
   22.1252   22.8071   35.8415 F   0  0  0  0  0  0  0  0  0  0  0  0
   24.7798   27.7772   36.0833 H   0  0  0  0  0  0  0  0  0  0  0  0
   31.0178   28.7888   36.1143 H   0  0  0  0  0  0  0  0  0  0  0  0
   32.5416   28.9991   34.1593 H   0  0  0  0  0  0  0  0  0  0  0  0
   31.7454   28.3188   31.9142 H   0  0  0  0  0  0  0  0  0  0  0  0
   29.5014   27.4242   31.5992 H   0  0  0  0  0  0  0  0  0  0  0  0
   27.7097   26.1833   31.6493 H   0  0  0  0  0  0  0  0  0  0  0  0
   26.1711   26.9655   32.0920 H   0  0  0  0  0  0  0  0  0  0  0  0
   18.2300   25.1919   36.4865 H   0  0  0  0  0  0  0  0  0  0  0  0
   18.6179   24.8682   38.2452 H   0  0  0  0  0  0  0  0  0  0  0  0
   17.8977   23.5835   37.2221 H   0  0  0  0  0  0  0  0  0  0  0  0
   20.8473   28.0679   38.8837 H   0  0  0  0  0  0  0  0  0  0  0  0
   19.0855   27.7252   39.0487 H   0  0  0  0  0  0  0  0  0  0  0  0
   20.2896   26.4387   39.4400 H   0  0  0  0  0  0  0  0  0  0  0  0
   22.8246   28.7110   37.4278 H   0  0  0  0  0  0  0  0  0  0  0  0
   21.2344   28.8434   36.5750 H   0  0  0  0  0  0  0  0  0  0  0  0
   22.7349   28.8542   35.6239 H   0  0  0  0  0  0  0  0  0  0  0  0
  1  2  1  0
  2  3  2  0
  2  4  1  0
  4  5  2  0
  5  6  1  0
  6  7  2  0
  7  8  1  0
  8  9  2  0
  9 10  1  0
 10 11  2  0
 11 12  1  0
 12 13  2  0
 13 14  1  0
  1 15  1  0
 15 16  2  0
 16 17  1  0
 17 18  2  0
 18 19  1  0
 19 20  1  0
 18 21  1  0
 21 22  1  0
 22 23  1  0
 21 24  2  0
 24 25  1  0
 17 26  1  0
 13  4  1  0
 24 15  1  0
 12  7  1  0
  1 27  1  0
  8 28  1  0
  9 29  1  0
 10 30  1  0
 11 31  1  0
 14 32  1  0
 14 33  1  0
 20 34  1  0
 20 35  1  0
 20 36  1  0
 23 37  1  0
 23 38  1  0
 23 39  1  0
 25 40  1  0
 25 41  1  0
 25 42  1  0
M  END
$$$$
confid_5
     RDKit          3D

 42 44  0  0  0  0  0  0  0  0999 V2000
   24.5700   26.8800   35.5900 N   0  0  0  0  0  0  0  0  0  0  0  0
   25.5000   26.4000   34.6900 C   0  0  0  0  0  0  0  0  0  0  0  0
   25.1700   25.5200   33.9100 O   0  0  0  0  0  0  0  0  0  0  0  0
   26.8400   27.0200   34.7400 C   0  0  0  0  0  0  0  0  0  0  0  0
   27.3800   27.2800   35.9400 N   0  0  0  0  0  0  0  0  0  0  0  0
   28.6200   27.7400   36.0300 N   0  0  0  0  0  0  0  0  0  0  0  0
   29.3800   28.0000   34.9600 C   0  0  0  0  0  0  0  0  0  0  0  0
   30.6700   28.5000   35.1300 C   0  0  0  0  0  0  0  0  0  0  0  0
   31.5400   28.6100   34.0300 C   0  0  0  0  0  0  0  0  0  0  0  0
   31.0900   28.2200   32.7700 C   0  0  0  0  0  0  0  0  0  0  0  0
   29.8000   27.7000   32.6000 C   0  0  0  0  0  0  0  0  0  0  0  0
   28.9600   27.5500   33.7100 C   0  0  0  0  0  0  0  0  0  0  0  0
   27.6600   27.0300   33.5900 C   0  0  0  0  0  0  0  0  0  0  0  0
   27.1600   26.7400   32.3400 N   0  0  0  0  0  0  0  0  0  0  0  0
   23.2051   26.4115   35.6969 C   0  0  0  0  0  0  0  0  0  0  0  0
   22.6492   25.7200   34.6696 N   0  0  0  0  0  0  0  0  0  0  0  0
   21.3685   25.2815   34.6769 C   0  0  0  0  0  0  0  0  0  0  0  0
   20.5302   25.5547   35.7777 C   0  0  0  0  0  0  0  0  0  0  0  0
   19.1899   25.1304   35.8190 O   0  0  0  0  0  0  0  0  0  0  0  0
   18.5122   24.3756   34.8210 C   0  0  0  0  0  0  0  0  0  0  0  0
   21.0676   26.2816   36.8716 C   0  0  0  0  0  0  0  0  0  0  0  0
   20.3115   26.6260   38.0116 O   0  0  0  0  0  0  0  0  0  0  0  0
   18.9421   26.3249   38.2604 C   0  0  0  0  0  0  0  0  0  0  0  0
   22.4216   26.6922   36.8397 C   0  0  0  0  0  0  0  0  0  0  0  0
   23.0180   27.4438   38.0087 C   0  0  0  0  0  0  0  0  0  0  0  0
   20.9292   24.5919   33.5966 F   0  0  0  0  0  0  0  0  0  0  0  0
   24.8620   27.6679   36.2106 H   0  0  0  0  0  0  0  0  0  0  0  0
   31.0179   28.7881   36.1145 H   0  0  0  0  0  0  0  0  0  0  0  0
   32.5424   28.9969   34.1599 H   0  0  0  0  0  0  0  0  0  0  0  0
   31.7487   28.3094   31.9157 H   0  0  0  0  0  0  0  0  0  0  0  0
   29.5081   27.3812   31.6085 H   0  0  0  0  0  0  0  0  0  0  0  0
   26.7455   25.8074   32.1268 H   0  0  0  0  0  0  0  0  0  0  0  0
   27.2470   27.4237   31.5558 H   0  0  0  0  0  0  0  0  0  0  0  0
   18.4792   24.9422   33.8673 H   0  0  0  0  0  0  0  0  0  0  0  0
   19.0083   23.3923   34.6810 H   0  0  0  0  0  0  0  0  0  0  0  0
   17.4694   24.1950   35.1540 H   0  0  0  0  0  0  0  0  0  0  0  0
   18.7919   25.2252   38.3044 H   0  0  0  0  0  0  0  0  0  0  0  0
   18.6572   26.7500   39.2441 H   0  0  0  0  0  0  0  0  0  0  0  0
   18.2977   26.7880   37.4833 H   0  0  0  0  0  0  0  0  0  0  0  0
   22.3866   27.3951   38.9183 H   0  0  0  0  0  0  0  0  0  0  0  0
   23.1518   28.5110   37.7359 H   0  0  0  0  0  0  0  0  0  0  0  0
   23.9998   27.0046   38.2836 H   0  0  0  0  0  0  0  0  0  0  0  0
  1  2  1  0
  2  3  2  0
  2  4  1  0
  4  5  2  0
  5  6  1  0
  6  7  2  0
  7  8  1  0
  8  9  2  0
  9 10  1  0
 10 11  2  0
 11 12  1  0
 12 13  2  0
 13 14  1  0
  1 15  1  0
 15 16  2  0
 16 17  1  0
 17 18  2  0
 18 19  1  0
 19 20  1  0
 18 21  1  0
 21 22  1  0
 22 23  1  0
 21 24  2  0
 24 25  1  0
 17 26  1  0
 13  4  1  0
 24 15  1  0
 12  7  1  0
  1 27  1  0
  8 28  1  0
  9 29  1  0
 10 30  1  0
 11 31  1  0
 14 32  1  0
 14 33  1  0
 20 34  1  0
 20 35  1  0
 20 36  1  0
 23 37  1  0
 23 38  1  0
 23 39  1  0
 25 40  1  0
 25 41  1  0
 25 42  1  0
M  END
$$$$
confid_6
     RDKit          3D

 42 44  0  0  0  0  0  0  0  0999 V2000
   24.5700   26.8800   35.5900 N   0  0  0  0  0  0  0  0  0  0  0  0
   25.5000   26.4000   34.6900 C   0  0  0  0  0  0  0  0  0  0  0  0
   25.1700   25.5200   33.9100 O   0  0  0  0  0  0  0  0  0  0  0  0
   26.8400   27.0200   34.7400 C   0  0  0  0  0  0  0  0  0  0  0  0
   27.3800   27.2800   35.9400 N   0  0  0  0  0  0  0  0  0  0  0  0
   28.6200   27.7400   36.0300 N   0  0  0  0  0  0  0  0  0  0  0  0
   29.3800   28.0000   34.9600 C   0  0  0  0  0  0  0  0  0  0  0  0
   30.6700   28.5000   35.1300 C   0  0  0  0  0  0  0  0  0  0  0  0
   31.5400   28.6100   34.0300 C   0  0  0  0  0  0  0  0  0  0  0  0
   31.0900   28.2200   32.7700 C   0  0  0  0  0  0  0  0  0  0  0  0
   29.8000   27.7000   32.6000 C   0  0  0  0  0  0  0  0  0  0  0  0
   28.9600   27.5500   33.7100 C   0  0  0  0  0  0  0  0  0  0  0  0
   27.6600   27.0300   33.5900 C   0  0  0  0  0  0  0  0  0  0  0  0
   27.1600   26.7400   32.3400 N   0  0  0  0  0  0  0  0  0  0  0  0
   23.3527   26.1859   35.9479 C   0  0  0  0  0  0  0  0  0  0  0  0
   23.2103   24.8735   35.6203 N   0  0  0  0  0  0  0  0  0  0  0  0
   22.1056   24.1535   35.9301 C   0  0  0  0  0  0  0  0  0  0  0  0
   21.0358   24.7470   36.6005 C   0  0  0  0  0  0  0  0  0  0  0  0
   19.9379   23.9248   36.9134 O   0  0  0  0  0  0  0  0  0  0  0  0
   18.8553   24.2587   37.7750 C   0  0  0  0  0  0  0  0  0  0  0  0
   21.1179   26.1222   36.9212 C   0  0  0  0  0  0  0  0  0  0  0  0
   20.0232   26.7779   37.4899 O   0  0  0  0  0  0  0  0  0  0  0  0
   19.1714   27.6133   36.7121 C   0  0  0  0  0  0  0  0  0  0  0  0
   22.3097   26.8376   36.6509 C   0  0  0  0  0  0  0  0  0  0  0  0
   22.4669   28.2686   37.1082 C   0  0  0  0  0  0  0  0  0  0  0  0
   22.0489   22.8430   35.5867 F   0  0  0  0  0  0  0  0  0  0  0  0
   24.7693   27.8070   36.0266 H   0  0  0  0  0  0  0  0  0  0  0  0
   31.0179   28.7883   36.1144 H   0  0  0  0  0  0  0  0  0  0  0  0
   32.5424   28.9969   34.1597 H   0  0  0  0  0  0  0  0  0  0  0  0
   31.7487   28.3095   31.9157 H   0  0  0  0  0  0  0  0  0  0  0  0
   29.5077   27.3813   31.6086 H   0  0  0  0  0  0  0  0  0  0  0  0
   26.7451   25.8075   32.1268 H   0  0  0  0  0  0  0  0  0  0  0  0
   27.2453   27.4248   31.5561 H   0  0  0  0  0  0  0  0  0  0  0  0
   18.1944   25.0062   37.2922 H   0  0  0  0  0  0  0  0  0  0  0  0
   19.2365   24.6341   38.7481 H   0  0  0  0  0  0  0  0  0  0  0  0
   18.2546   23.3458   37.9646 H   0  0  0  0  0  0  0  0  0  0  0  0
   19.7436   28.4546   36.2694 H   0  0  0  0  0  0  0  0  0  0  0  0
   18.7046   27.0229   35.8957 H   0  0  0  0  0  0  0  0  0  0  0  0
   18.3720   28.0239   37.3620 H   0  0  0  0  0  0  0  0  0  0  0  0
   21.6296   28.6072   37.7506 H   0  0  0  0  0  0  0  0  0  0  0  0
   22.5309   28.9399   36.2262 H   0  0  0  0  0  0  0  0  0  0  0  0
   23.3850   28.3700   37.7237 H   0  0  0  0  0  0  0  0  0  0  0  0
  1  2  1  0
  2  3  2  0
  2  4  1  0
  4  5  2  0
  5  6  1  0
  6  7  2  0
  7  8  1  0
  8  9  2  0
  9 10  1  0
 10 11  2  0
 11 12  1  0
 12 13  2  0
 13 14  1  0
  1 15  1  0
 15 16  2  0
 16 17  1  0
 17 18  2  0
 18 19  1  0
 19 20  1  0
 18 21  1  0
 21 22  1  0
 22 23  1  0
 21 24  2  0
 24 25  1  0
 17 26  1  0
 13  4  1  0
 24 15  1  0
 12  7  1  0
  1 27  1  0
  8 28  1  0
  9 29  1  0
 10 30  1  0
 11 31  1  0
 14 32  1  0
 14 33  1  0
 20 34  1  0
 20 35  1  0
 20 36  1  0
 23 37  1  0
 23 38  1  0
 23 39  1  0
 25 40  1  0
 25 41  1  0
 25 42  1  0
M  END
$$$$
