confid_0
     RDKit          3D

 40 43  0  0  0  0  0  0  0  0999 V2000
   24.4800   26.1000   36.1300 N   0  0  0  0  0  0  0  0  0  0  0  0
   25.2500   26.2500   34.9900 C   0  0  0  0  0  0  0  0  0  0  0  0
   24.7400   25.7600   33.9900 O   0  0  0  0  0  0  0  0  0  0  0  0
   26.5900   26.8900   34.9600 C   0  0  0  0  0  0  0  0  0  0  0  0
   27.0600   27.2400   36.1600 N   0  0  0  0  0  0  0  0  0  0  0  0
   28.3000   27.7100   36.2400 N   0  0  0  0  0  0  0  0  0  0  0  0
   29.0500   27.9600   35.1500 C   0  0  0  0  0  0  0  0  0  0  0  0
   30.3400   28.4900   35.2600 C   0  0  0  0  0  0  0  0  0  0  0  0
   31.1100   28.8200   34.1400 C   0  0  0  0  0  0  0  0  0  0  0  0
   30.5200   28.6700   32.8800 C   0  0  0  0  0  0  0  0  0  0  0  0
   29.2900   28.0200   32.7700 C   0  0  0  0  0  0  0  0  0  0  0  0
   28.5200   27.7100   33.8900 C   0  0  0  0  0  0  0  0  0  0  0  0
   27.2700   27.0800   33.7600 C   0  0  0  0  0  0  0  0  0  0  0  0
   26.7500   26.8800   32.4900 N   0  0  0  0  0  0  0  0  0  0  0  0
   23.0447   25.9458   36.1374 C   0  0  0  0  0  0  0  0  0  0  0  0
   22.2560   26.6988   35.2279 C   0  0  0  0  0  0  0  0  0  0  0  0
   20.8483   26.6668   35.1023 C   0  0  0  0  0  0  0  0  0  0  0  0
   20.2983   27.4620   34.0825 O   0  0  0  0  0  0  0  0  0  0  0  0
   19.0674   27.1821   33.4189 C   0  0  0  0  0  0  0  0  0  0  0  0
   17.8549   27.4987   34.3099 C   0  0  0  0  0  0  0  0  0  0  0  0
   18.0876   27.2546   35.6835 O   0  0  0  0  0  0  0  0  0  0  0  0
   18.5278   25.9293   35.9010 C   0  0  0  0  0  0  0  0  0  0  0  0
   20.0291   25.8966   35.9563 C   0  0  0  0  0  0  0  0  0  0  0  0
   20.7907   24.9343   37.1189 S   0  0  0  0  0  0  0  0  0  0  0  0
   22.4681   25.0844   37.0803 C   0  0  0  0  0  0  0  0  0  0  0  0
   23.1760   24.4243   37.8864 O   0  0  0  0  0  0  0  0  0  0  0  0
   24.9742   26.0637   37.0501 H   0  0  0  0  0  0  0  0  0  0  0  0
   30.7580   28.6629   36.2441 H   0  0  0  0  0  0  0  0  0  0  0  0
   32.0983   29.2479   34.2470 H   0  0  0  0  0  0  0  0  0  0  0  0
   31.0669   28.9543   31.9901 H   0  0  0  0  0  0  0  0  0  0  0  0
   28.9258   27.8587   31.7656 H   0  0  0  0  0  0  0  0  0  0  0  0
   25.7671   27.1499   32.2661 H   0  0  0  0  0  0  0  0  0  0  0  0
   27.2969   26.3789   31.7552 H   0  0  0  0  0  0  0  0  0  0  0  0
   22.7767   27.3669   34.5530 H   0  0  0  0  0  0  0  0  0  0  0  0
   19.0498   26.1166   33.1019 H   0  0  0  0  0  0  0  0  0  0  0  0
   19.0095   27.7987   32.4971 H   0  0  0  0  0  0  0  0  0  0  0  0
   17.6134   28.5769   34.1977 H   0  0  0  0  0  0  0  0  0  0  0  0
   16.9637   26.9311   33.9606 H   0  0  0  0  0  0  0  0  0  0  0  0
   18.1510   25.1983   35.1481 H   0  0  0  0  0  0  0  0  0  0  0  0
   18.1198   25.5982   36.8794 H   0  0  0  0  0  0  0  0  0  0  0  0
  1  2  1  0
  2  3  2  0
  2  4  1  0
  4  5  2  0
  5  6  1  0
  6  7  2  0
  7  8  1  0
  8  9  2  0
  9 10  1  0
 10 11  2  0
 11 12  1  0
 12 13  2  0
 13 14  1  0
  1 15  1  0
 15 16  2  0
 16 17  1  0
 17 18  1  0
 18 19  1  0
 19 20  1  0
 20 21  1  0
 21 22  1  0
 22 23  1  0
 23 24  1  0
 24 25  1  0
 25 26  2  0
 13  4  1  0
 25 15  1  0
 12  7  1  0
 23 17  2  0
  1 27  1  0
  8 28  1  0
  9 29  1  0
 10 30  1  0
 11 31  1  0
 14 32  1  0
 14 33  1  0
 16 34  1  0
 19 35  1  0
 19 36  1  0
 20 37  1  0
 20 38  1  0
 22 39  1  0
 22 40  1  0
M  END
$$$$
confid_1
     RDKit          3D

 40 43  0  0  0  0  0  0  0  0999 V2000
   24.4800   26.1000   36.1300 N   0  0  0  0  0  0  0  0  0  0  0  0
   25.2500   26.2500   34.9900 C   0  0  0  0  0  0  0  0  0  0  0  0
   24.7400   25.7600   33.9900 O   0  0  0  0  0  0  0  0  0  0  0  0
   26.5900   26.8900   34.9600 C   0  0  0  0  0  0  0  0  0  0  0  0
   27.0600   27.2400   36.1600 N   0  0  0  0  0  0  0  0  0  0  0  0
   28.3000   27.7100   36.2400 N   0  0  0  0  0  0  0  0  0  0  0  0
   29.0500   27.9600   35.1500 C   0  0  0  0  0  0  0  0  0  0  0  0
   30.3400   28.4900   35.2600 C   0  0  0  0  0  0  0  0  0  0  0  0
   31.1100   28.8200   34.1400 C   0  0  0  0  0  0  0  0  0  0  0  0
   30.5200   28.6700   32.8800 C   0  0  0  0  0  0  0  0  0  0  0  0
   29.2900   28.0200   32.7700 C   0  0  0  0  0  0  0  0  0  0  0  0
   28.5200   27.7100   33.8900 C   0  0  0  0  0  0  0  0  0  0  0  0
   27.2700   27.0800   33.7600 C   0  0  0  0  0  0  0  0  0  0  0  0
   26.7500   26.8800   32.4900 N   0  0  0  0  0  0  0  0  0  0  0  0
   23.4712   25.0847   36.3170 C   0  0  0  0  0  0  0  0  0  0  0  0
   23.7163   23.7638   35.8583 C   0  0  0  0  0  0  0  0  0  0  0  0
   22.8376   22.6613   35.9575 C   0  0  0  0  0  0  0  0  0  0  0  0
   23.2744   21.4562   35.3946 O   0  0  0  0  0  0  0  0  0  0  0  0
   22.4827   20.6767   34.5017 C   0  0  0  0  0  0  0  0  0  0  0  0
   21.3402   19.9743   35.2288 C   0  0  0  0  0  0  0  0  0  0  0  0
   20.3613   20.9045   35.6453 O   0  0  0  0  0  0  0  0  0  0  0  0
   20.7370   21.5275   36.8566 C   0  0  0  0  0  0  0  0  0  0  0  0
   21.5893   22.7382   36.6007 C   0  0  0  0  0  0  0  0  0  0  0  0
   21.1346   24.2303   37.2543 S   0  0  0  0  0  0  0  0  0  0  0  0
   22.2951   25.4250   36.9985 C   0  0  0  0  0  0  0  0  0  0  0  0
   22.0929   26.5964   37.4152 O   0  0  0  0  0  0  0  0  0  0  0  0
   24.6110   26.7992   36.8957 H   0  0  0  0  0  0  0  0  0  0  0  0
   30.7582   28.6623   36.2441 H   0  0  0  0  0  0  0  0  0  0  0  0
   32.0994   29.2455   34.2469 H   0  0  0  0  0  0  0  0  0  0  0  0
   31.0716   28.9442   31.9898 H   0  0  0  0  0  0  0  0  0  0  0  0
   28.9437   27.8129   31.7669 H   0  0  0  0  0  0  0  0  0  0  0  0
   26.3616   25.9529   32.2111 H   0  0  0  0  0  0  0  0  0  0  0  0
   26.7156   27.6566   31.7925 H   0  0  0  0  0  0  0  0  0  0  0  0
   24.6688   23.5708   35.3802 H   0  0  0  0  0  0  0  0  0  0  0  0
   22.0827   21.3210   33.6885 H   0  0  0  0  0  0  0  0  0  0  0  0
   23.1355   19.9072   34.0382 H   0  0  0  0  0  0  0  0  0  0  0  0
   21.7270   19.3378   36.0574 H   0  0  0  0  0  0  0  0  0  0  0  0
   20.8574   19.2791   34.5099 H   0  0  0  0  0  0  0  0  0  0  0  0
   21.2510   20.8452   37.5718 H   0  0  0  0  0  0  0  0  0  0  0  0
   19.8032   21.8413   37.3694 H   0  0  0  0  0  0  0  0  0  0  0  0
  1  2  1  0
  2  3  2  0
  2  4  1  0
  4  5  2  0
  5  6  1  0
  6  7  2  0
  7  8  1  0
  8  9  2  0
  9 10  1  0
 10 11  2  0
 11 12  1  0
 12 13  2  0
 13 14  1  0
  1 15  1  0
 15 16  2  0
 16 17  1  0
 17 18  1  0
 18 19  1  0
 19 20  1  0
 20 21  1  0
 21 22  1  0
 22 23  1  0
 23 24  1  0
 24 25  1  0
 25 26  2  0
 13  4  1  0
 25 15  1  0
 12  7  1  0
 23 17  2  0
  1 27  1  0
  8 28  1  0
  9 29  1  0
 10 30  1  0
 11 31  1  0
 14 32  1  0
 14 33  1  0
 16 34  1  0
 19 35  1  0
 19 36  1  0
 20 37  1  0
 20 38  1  0
 22 39  1  0
 22 40  1  0
M  END
$$$$
confid_2
     RDKit          3D

 40 43  0  0  0  0  0  0  0  0999 V2000
   24.4800   26.1000   36.1300 N   0  0  0  0  0  0  0  0  0  0  0  0
   25.2500   26.2500   34.9900 C   0  0  0  0  0  0  0  0  0  0  0  0
   24.7400   25.7600   33.9900 O   0  0  0  0  0  0  0  0  0  0  0  0
   26.5900   26.8900   34.9600 C   0  0  0  0  0  0  0  0  0  0  0  0
   27.0600   27.2400   36.1600 N   0  0  0  0  0  0  0  0  0  0  0  0
   28.3000   27.7100   36.2400 N   0  0  0  0  0  0  0  0  0  0  0  0
   29.0500   27.9600   35.1500 C   0  0  0  0  0  0  0  0  0  0  0  0
   30.3400   28.4900   35.2600 C   0  0  0  0  0  0  0  0  0  0  0  0
   31.1100   28.8200   34.1400 C   0  0  0  0  0  0  0  0  0  0  0  0
   30.5200   28.6700   32.8800 C   0  0  0  0  0  0  0  0  0  0  0  0
   29.2900   28.0200   32.7700 C   0  0  0  0  0  0  0  0  0  0  0  0
   28.5200   27.7100   33.8900 C   0  0  0  0  0  0  0  0  0  0  0  0
   27.2700   27.0800   33.7600 C   0  0  0  0  0  0  0  0  0  0  0  0
   26.7500   26.8800   32.4900 N   0  0  0  0  0  0  0  0  0  0  0  0
   23.0446   25.9459   36.1372 C   0  0  0  0  0  0  0  0  0  0  0  0
   22.2563   26.6971   35.2261 C   0  0  0  0  0  0  0  0  0  0  0  0
   20.8491   26.6593   35.0998 C   0  0  0  0  0  0  0  0  0  0  0  0
   20.2858   27.4588   34.0983 O   0  0  0  0  0  0  0  0  0  0  0  0
   19.3420   26.9730   33.1469 C   0  0  0  0  0  0  0  0  0  0  0  0
   17.9766   26.7291   33.7819 C   0  0  0  0  0  0  0  0  0  0  0  0
   18.0168   25.6145   34.6497 O   0  0  0  0  0  0  0  0  0  0  0  0
   18.5308   25.9758   35.9153 C   0  0  0  0  0  0  0  0  0  0  0  0
   20.0303   25.8810   35.9374 C   0  0  0  0  0  0  0  0  0  0  0  0
   20.7882   24.9418   37.1221 S   0  0  0  0  0  0  0  0  0  0  0  0
   22.4662   25.0915   37.0857 C   0  0  0  0  0  0  0  0  0  0  0  0
   23.1725   24.4393   37.8996 O   0  0  0  0  0  0  0  0  0  0  0  0
   24.9742   26.0643   37.0501 H   0  0  0  0  0  0  0  0  0  0  0  0
   30.7580   28.6629   36.2441 H   0  0  0  0  0  0  0  0  0  0  0  0
   32.0983   29.2479   34.2470 H   0  0  0  0  0  0  0  0  0  0  0  0
   31.0669   28.9543   31.9901 H   0  0  0  0  0  0  0  0  0  0  0  0
   28.9258   27.8587   31.7656 H   0  0  0  0  0  0  0  0  0  0  0  0
   25.7671   27.1499   32.2661 H   0  0  0  0  0  0  0  0  0  0  0  0
   27.2969   26.3789   31.7552 H   0  0  0  0  0  0  0  0  0  0  0  0
   22.7752   27.3685   34.5530 H   0  0  0  0  0  0  0  0  0  0  0  0
   19.7216   26.0379   32.6797 H   0  0  0  0  0  0  0  0  0  0  0  0
   19.2308   27.7342   32.3461 H   0  0  0  0  0  0  0  0  0  0  0  0
   17.2607   26.4932   32.9664 H   0  0  0  0  0  0  0  0  0  0  0  0
   17.5923   27.6550   34.2681 H   0  0  0  0  0  0  0  0  0  0  0  0
   18.1100   25.2647   36.6573 H   0  0  0  0  0  0  0  0  0  0  0  0
   18.2089   26.9854   36.2591 H   0  0  0  0  0  0  0  0  0  0  0  0
  1  2  1  0
  2  3  2  0
  2  4  1  0
  4  5  2  0
  5  6  1  0
  6  7  2  0
  7  8  1  0
  8  9  2  0
  9 10  1  0
 10 11  2  0
 11 12  1  0
 12 13  2  0
 13 14  1  0
  1 15  1  0
 15 16  2  0
 16 17  1  0
 17 18  1  0
 18 19  1  0
 19 20  1  0
 20 21  1  0
 21 22  1  0
 22 23  1  0
 23 24  1  0
 24 25  1  0
 25 26  2  0
 13  4  1  0
 25 15  1  0
 12  7  1  0
 23 17  2  0
  1 27  1  0
  8 28  1  0
  9 29  1  0
 10 30  1  0
 11 31  1  0
 14 32  1  0
 14 33  1  0
 16 34  1  0
 19 35  1  0
 19 36  1  0
 20 37  1  0
 20 38  1  0
 22 39  1  0
 22 40  1  0
M  END
$$$$
confid_3
     RDKit          3D

 40 43  0  0  0  0  0  0  0  0999 V2000
   24.4800   26.1000   36.1300 N   0  0  0  0  0  0  0  0  0  0  0  0
   25.2500   26.2500   34.9900 C   0  0  0  0  0  0  0  0  0  0  0  0
   24.7400   25.7600   33.9900 O   0  0  0  0  0  0  0  0  0  0  0  0
   26.5900   26.8900   34.9600 C   0  0  0  0  0  0  0  0  0  0  0  0
   27.0600   27.2400   36.1600 N   0  0  0  0  0  0  0  0  0  0  0  0
   28.3000   27.7100   36.2400 N   0  0  0  0  0  0  0  0  0  0  0  0
   29.0500   27.9600   35.1500 C   0  0  0  0  0  0  0  0  0  0  0  0
   30.3400   28.4900   35.2600 C   0  0  0  0  0  0  0  0  0  0  0  0
   31.1100   28.8200   34.1400 C   0  0  0  0  0  0  0  0  0  0  0  0
   30.5200   28.6700   32.8800 C   0  0  0  0  0  0  0  0  0  0  0  0
   29.2900   28.0200   32.7700 C   0  0  0  0  0  0  0  0  0  0  0  0
   28.5200   27.7100   33.8900 C   0  0  0  0  0  0  0  0  0  0  0  0
   27.2700   27.0800   33.7600 C   0  0  0  0  0  0  0  0  0  0  0  0
   26.7500   26.8800   32.4900 N   0  0  0  0  0  0  0  0  0  0  0  0
   23.4711   25.0848   36.3169 C   0  0  0  0  0  0  0  0  0  0  0  0
   23.7156   23.7642   35.8590 C   0  0  0  0  0  0  0  0  0  0  0  0
   22.8385   22.6601   35.9590 C   0  0  0  0  0  0  0  0  0  0  0  0
   23.2845   21.4592   35.3969 O   0  0  0  0  0  0  0  0  0  0  0  0
   22.5467   20.7245   34.4217 C   0  0  0  0  0  0  0  0  0  0  0  0
   21.1501   20.3591   34.9212 C   0  0  0  0  0  0  0  0  0  0  0  0
   21.1398   20.3323   36.3340 O   0  0  0  0  0  0  0  0  0  0  0  0
   20.6650   21.5591   36.8526 C   0  0  0  0  0  0  0  0  0  0  0  0
   21.5878   22.7337   36.6101 C   0  0  0  0  0  0  0  0  0  0  0  0
   21.1338   24.2311   37.2496 S   0  0  0  0  0  0  0  0  0  0  0  0
   22.2944   25.4255   36.9957 C   0  0  0  0  0  0  0  0  0  0  0  0
   22.0906   26.5975   37.4097 O   0  0  0  0  0  0  0  0  0  0  0  0
   24.6108   26.7992   36.8957 H   0  0  0  0  0  0  0  0  0  0  0  0
   30.7582   28.6623   36.2441 H   0  0  0  0  0  0  0  0  0  0  0  0
   32.0994   29.2455   34.2469 H   0  0  0  0  0  0  0  0  0  0  0  0
   31.0716   28.9442   31.9898 H   0  0  0  0  0  0  0  0  0  0  0  0
   28.9437   27.8129   31.7669 H   0  0  0  0  0  0  0  0  0  0  0  0
   26.7156   27.6566   31.7925 H   0  0  0  0  0  0  0  0  0  0  0  0
   26.3616   25.9529   32.2111 H   0  0  0  0  0  0  0  0  0  0  0  0
   24.6682   23.5720   35.3806 H   0  0  0  0  0  0  0  0  0  0  0  0
   23.1102   19.7955   34.1912 H   0  0  0  0  0  0  0  0  0  0  0  0
   22.4723   21.3186   33.4853 H   0  0  0  0  0  0  0  0  0  0  0  0
   20.8891   19.3453   34.5499 H   0  0  0  0  0  0  0  0  0  0  0  0
   20.3938   21.0507   34.4784 H   0  0  0  0  0  0  0  0  0  0  0  0
   19.6432   21.7879   36.4731 H   0  0  0  0  0  0  0  0  0  0  0  0
   20.5619   21.4367   37.9511 H   0  0  0  0  0  0  0  0  0  0  0  0
  1  2  1  0
  2  3  2  0
  2  4  1  0
  4  5  2  0
  5  6  1  0
  6  7  2  0
  7  8  1  0
  8  9  2  0
  9 10  1  0
 10 11  2  0
 11 12  1  0
 12 13  2  0
 13 14  1  0
  1 15  1  0
 15 16  2  0
 16 17  1  0
 17 18  1  0
 18 19  1  0
 19 20  1  0
 20 21  1  0
 21 22  1  0
 22 23  1  0
 23 24  1  0
 24 25  1  0
 25 26  2  0
 13  4  1  0
 25 15  1  0
 12  7  1  0
 23 17  2  0
  1 27  1  0
  8 28  1  0
  9 29  1  0
 10 30  1  0
 11 31  1  0
 14 32  1  0
 14 33  1  0
 16 34  1  0
 19 35  1  0
 19 36  1  0
 20 37  1  0
 20 38  1  0
 22 39  1  0
 22 40  1  0
M  END
$$$$
confid_4
     RDKit          3D

 40 43  0  0  0  0  0  0  0  0999 V2000
   24.4800   26.1000   36.1300 N   0  0  0  0  0  0  0  0  0  0  0  0
   25.2500   26.2500   34.9900 C   0  0  0  0  0  0  0  0  0  0  0  0
   24.7400   25.7600   33.9900 O   0  0  0  0  0  0  0  0  0  0  0  0
   26.5900   26.8900   34.9600 C   0  0  0  0  0  0  0  0  0  0  0  0
   27.0600   27.2400   36.1600 N   0  0  0  0  0  0  0  0  0  0  0  0
   28.3000   27.7100   36.2400 N   0  0  0  0  0  0  0  0  0  0  0  0
   29.0500   27.9600   35.1500 C   0  0  0  0  0  0  0  0  0  0  0  0
   30.3400   28.4900   35.2600 C   0  0  0  0  0  0  0  0  0  0  0  0
   31.1100   28.8200   34.1400 C   0  0  0  0  0  0  0  0  0  0  0  0
   30.5200   28.6700   32.8800 C   0  0  0  0  0  0  0  0  0  0  0  0
   29.2900   28.0200   32.7700 C   0  0  0  0  0  0  0  0  0  0  0  0
   28.5200   27.7100   33.8900 C   0  0  0  0  0  0  0  0  0  0  0  0
   27.2700   27.0800   33.7600 C   0  0  0  0  0  0  0  0  0  0  0  0
   26.7500   26.8800   32.4900 N   0  0  0  0  0  0  0  0  0  0  0  0
   23.4698   25.0860   36.3165 C   0  0  0  0  0  0  0  0  0  0  0  0
   23.7147   23.7642   35.8603 C   0  0  0  0  0  0  0  0  0  0  0  0
   22.8387   22.6592   35.9615 C   0  0  0  0  0  0  0  0  0  0  0  0
   23.2827   21.4601   35.3786 O   0  0  0  0  0  0  0  0  0  0  0  0
   22.4203   20.4454   34.8685 C   0  0  0  0  0  0  0  0  0  0  0  0
   21.7554   19.6418   35.9983 C   0  0  0  0  0  0  0  0  0  0  0  0
   21.4745   20.4154   37.1486 O   0  0  0  0  0  0  0  0  0  0  0  0
   20.6962   21.5501   36.8253 C   0  0  0  0  0  0  0  0  0  0  0  0
   21.5931   22.7384   36.6218 C   0  0  0  0  0  0  0  0  0  0  0  0
   21.1279   24.2391   37.2459 S   0  0  0  0  0  0  0  0  0  0  0  0
   22.2902   25.4311   36.9891 C   0  0  0  0  0  0  0  0  0  0  0  0
   22.0855   26.6057   37.3954 O   0  0  0  0  0  0  0  0  0  0  0  0
   24.6111   26.7990   36.8959 H   0  0  0  0  0  0  0  0  0  0  0  0
   30.7580   28.6629   36.2441 H   0  0  0  0  0  0  0  0  0  0  0  0
   32.0983   29.2479   34.2470 H   0  0  0  0  0  0  0  0  0  0  0  0
   31.0669   28.9543   31.9901 H   0  0  0  0  0  0  0  0  0  0  0  0
   28.9258   27.8587   31.7656 H   0  0  0  0  0  0  0  0  0  0  0  0
   25.7672   27.1501   32.2658 H   0  0  0  0  0  0  0  0  0  0  0  0
   27.2968   26.3786   31.7554 H   0  0  0  0  0  0  0  0  0  0  0  0
   24.6663   23.5726   35.3798 H   0  0  0  0  0  0  0  0  0  0  0  0
   21.6494   20.9071   34.2137 H   0  0  0  0  0  0  0  0  0  0  0  0
   23.0160   19.7543   34.2354 H   0  0  0  0  0  0  0  0  0  0  0  0
   20.8291   19.1505   35.6256 H   0  0  0  0  0  0  0  0  0  0  0  0
   22.4497   18.8300   36.3022 H   0  0  0  0  0  0  0  0  0  0  0  0
   20.0199   21.7467   37.6840 H   0  0  0  0  0  0  0  0  0  0  0  0
   20.0342   21.4070   35.9396 H   0  0  0  0  0  0  0  0  0  0  0  0
  1  2  1  0
  2  3  2  0
  2  4  1  0
  4  5  2  0
  5  6  1  0
  6  7  2  0
  7  8  1  0
  8  9  2  0
  9 10  1  0
 10 11  2  0
 11 12  1  0
 12 13  2  0
 13 14  1  0
  1 15  1  0
 15 16  2  0
 16 17  1  0
 17 18  1  0
 18 19  1  0
 19 20  1  0
 20 21  1  0
 21 22  1  0
 22 23  1  0
 23 24  1  0
 24 25  1  0
 25 26  2  0
 13  4  1  0
 25 15  1  0
 12  7  1  0
 23 17  2  0
  1 27  1  0
  8 28  1  0
  9 29  1  0
 10 30  1  0
 11 31  1  0
 14 32  1  0
 14 33  1  0
 16 34  1  0
 19 35  1  0
 19 36  1  0
 20 37  1  0
 20 38  1  0
 22 39  1  0
 22 40  1  0
M  END
$$$$
confid_5
     RDKit          3D

 40 43  0  0  0  0  0  0  0  0999 V2000
   24.4800   26.1000   36.1300 N   0  0  0  0  0  0  0  0  0  0  0  0
   25.2500   26.2500   34.9900 C   0  0  0  0  0  0  0  0  0  0  0  0
   24.7400   25.7600   33.9900 O   0  0  0  0  0  0  0  0  0  0  0  0
   26.5900   26.8900   34.9600 C   0  0  0  0  0  0  0  0  0  0  0  0
   27.0600   27.2400   36.1600 N   0  0  0  0  0  0  0  0  0  0  0  0
   28.3000   27.7100   36.2400 N   0  0  0  0  0  0  0  0  0  0  0  0
   29.0500   27.9600   35.1500 C   0  0  0  0  0  0  0  0  0  0  0  0
   30.3400   28.4900   35.2600 C   0  0  0  0  0  0  0  0  0  0  0  0
   31.1100   28.8200   34.1400 C   0  0  0  0  0  0  0  0  0  0  0  0
   30.5200   28.6700   32.8800 C   0  0  0  0  0  0  0  0  0  0  0  0
   29.2900   28.0200   32.7700 C   0  0  0  0  0  0  0  0  0  0  0  0
   28.5200   27.7100   33.8900 C   0  0  0  0  0  0  0  0  0  0  0  0
   27.2700   27.0800   33.7600 C   0  0  0  0  0  0  0  0  0  0  0  0
   26.7500   26.8800   32.4900 N   0  0  0  0  0  0  0  0  0  0  0  0
   23.0451   25.9416   36.1372 C   0  0  0  0  0  0  0  0  0  0  0  0
   22.2543   26.6908   35.2274 C   0  0  0  0  0  0  0  0  0  0  0  0
   20.8469   26.6514   35.1013 C   0  0  0  0  0  0  0  0  0  0  0  0
   20.2899   27.4549   34.1007 O   0  0  0  0  0  0  0  0  0  0  0  0
   19.4286   26.9560   33.0788 C   0  0  0  0  0  0  0  0  0  0  0  0
   18.2036   26.2527   33.6603 C   0  0  0  0  0  0  0  0  0  0  0  0
   17.9456   26.7401   34.9613 O   0  0  0  0  0  0  0  0  0  0  0  0
   18.5118   25.8856   35.9353 C   0  0  0  0  0  0  0  0  0  0  0  0
   20.0250   25.8731   35.9452 C   0  0  0  0  0  0  0  0  0  0  0  0
   20.7925   24.9284   37.1180 S   0  0  0  0  0  0  0  0  0  0  0  0
   22.4696   25.0838   37.0831 C   0  0  0  0  0  0  0  0  0  0  0  0
   23.1777   24.4307   37.8947 O   0  0  0  0  0  0  0  0  0  0  0  0
   24.9740   26.0662   37.0503 H   0  0  0  0  0  0  0  0  0  0  0  0
   30.7582   28.6623   36.2441 H   0  0  0  0  0  0  0  0  0  0  0  0
   32.0994   29.2455   34.2469 H   0  0  0  0  0  0  0  0  0  0  0  0
   31.0715   28.9442   31.9898 H   0  0  0  0  0  0  0  0  0  0  0  0
   28.9437   27.8129   31.7669 H   0  0  0  0  0  0  0  0  0  0  0  0
   26.7153   27.6568   31.7928 H   0  0  0  0  0  0  0  0  0  0  0  0
   26.3612   25.9530   32.2111 H   0  0  0  0  0  0  0  0  0  0  0  0
   22.7721   27.3633   34.5546 H   0  0  0  0  0  0  0  0  0  0  0  0
   19.0993   27.8147   32.4560 H   0  0  0  0  0  0  0  0  0  0  0  0
   19.9930   26.2573   32.4240 H   0  0  0  0  0  0  0  0  0  0  0  0
   17.3230   26.4770   33.0214 H   0  0  0  0  0  0  0  0  0  0  0  0
   18.3412   25.1459   33.6131 H   0  0  0  0  0  0  0  0  0  0  0  0
   18.1744   26.2468   36.9294 H   0  0  0  0  0  0  0  0  0  0  0  0
   18.1191   24.8480   35.8375 H   0  0  0  0  0  0  0  0  0  0  0  0
  1  2  1  0
  2  3  2  0
  2  4  1  0
  4  5  2  0
  5  6  1  0
  6  7  2  0
  7  8  1  0
  8  9  2  0
  9 10  1  0
 10 11  2  0
 11 12  1  0
 12 13  2  0
 13 14  1  0
  1 15  1  0
 15 16  2  0
 16 17  1  0
 17 18  1  0
 18 19  1  0
 19 20  1  0
 20 21  1  0
 21 22  1  0
 22 23  1  0
 23 24  1  0
 24 25  1  0
 25 26  2  0
 13  4  1  0
 25 15  1  0
 12  7  1  0
 23 17  2  0
  1 27  1  0
  8 28  1  0
  9 29  1  0
 10 30  1  0
 11 31  1  0
 14 32  1  0
 14 33  1  0
 16 34  1  0
 19 35  1  0
 19 36  1  0
 20 37  1  0
 20 38  1  0
 22 39  1  0
 22 40  1  0
M  END
$$$$
