confid_0
     RDKit          3D

 37 39  0  0  0  0  0  0  0  0999 V2000
   24.5500   26.3900   36.2500 N   0  0  0  0  0  0  0  0  0  0  0  0
   25.6000   26.1300   35.4000 C   0  0  0  0  0  0  0  0  0  0  0  0
   25.4300   25.4300   34.4200 O   0  0  0  0  0  0  0  0  0  0  0  0
   26.9800   26.6300   35.7100 C   0  0  0  0  0  0  0  0  0  0  0  0
   27.3200   26.8200   36.9800 N   0  0  0  0  0  0  0  0  0  0  0  0
   28.4700   27.4000   37.3100 N   0  0  0  0  0  0  0  0  0  0  0  0
   29.4000   27.6300   36.3700 C   0  0  0  0  0  0  0  0  0  0  0  0
   30.6600   28.0500   36.8000 C   0  0  0  0  0  0  0  0  0  0  0  0
   31.5700   28.3600   35.7800 C   0  0  0  0  0  0  0  0  0  0  0  0
   31.3700   28.1000   34.4300 C   0  0  0  0  0  0  0  0  0  0  0  0
   30.1200   27.5900   34.0500 C   0  0  0  0  0  0  0  0  0  0  0  0
   29.1500   27.3400   35.0300 C   0  0  0  0  0  0  0  0  0  0  0  0
   27.8800   26.8900   34.6600 C   0  0  0  0  0  0  0  0  0  0  0  0
   27.4800   26.6100   33.3700 N   0  0  0  0  0  0  0  0  0  0  0  0
   23.2086   25.8937   36.0938 C   0  0  0  0  0  0  0  0  0  0  0  0
   22.8752   25.0707   35.0639 N   0  0  0  0  0  0  0  0  0  0  0  0
   21.6107   24.6006   34.9166 C   0  0  0  0  0  0  0  0  0  0  0  0
   20.6127   24.9592   35.8355 C   0  0  0  0  0  0  0  0  0  0  0  0
   20.9747   25.8094   36.8942 C   0  0  0  0  0  0  0  0  0  0  0  0
   20.0176   26.1971   37.8391 O   0  0  0  0  0  0  0  0  0  0  0  0
   20.3176   27.0546   38.9339 C   0  0  0  0  0  0  0  0  0  0  0  0
   22.2578   26.2523   36.9953 N   0  0  0  0  0  0  0  0  0  0  0  0
   19.1954   24.4551   35.7033 C   0  0  0  0  0  0  0  0  0  0  0  0
   18.8541   23.7348   36.8336 F   0  0  0  0  0  0  0  0  0  0  0  0
   18.3334   25.5291   35.5741 F   0  0  0  0  0  0  0  0  0  0  0  0
   19.0449   23.6356   34.5978 F   0  0  0  0  0  0  0  0  0  0  0  0
   24.7241   27.0146   37.0698 H   0  0  0  0  0  0  0  0  0  0  0  0
   30.8875   28.2367   37.8426 H   0  0  0  0  0  0  0  0  0  0  0  0
   32.5281   28.7695   36.0734 H   0  0  0  0  0  0  0  0  0  0  0  0
   32.1340   28.3195   33.6952 H   0  0  0  0  0  0  0  0  0  0  0  0
   29.9373   27.4178   32.9983 H   0  0  0  0  0  0  0  0  0  0  0  0
   28.1243   26.1389   32.6977 H   0  0  0  0  0  0  0  0  0  0  0  0
   26.5957   27.0142   32.9876 H   0  0  0  0  0  0  0  0  0  0  0  0
   21.3923   23.9487   34.0816 H   0  0  0  0  0  0  0  0  0  0  0  0
   21.0948   26.5913   39.5779 H   0  0  0  0  0  0  0  0  0  0  0  0
   19.3992   27.2120   39.5357 H   0  0  0  0  0  0  0  0  0  0  0  0
   20.6757   28.0372   38.5601 H   0  0  0  0  0  0  0  0  0  0  0  0
  1  2  1  0
  2  3  2  0
  2  4  1  0
  4  5  2  0
  5  6  1  0
  6  7  2  0
  7  8  1  0
  8  9  2  0
  9 10  1  0
 10 11  2  0
 11 12  1  0
 12 13  2  0
 13 14  1  0
  1 15  1  0
 15 16  2  0
 16 17  1  0
 17 18  2  0
 18 19  1  0
 19 20  1  0
 20 21  1  0
 19 22  2  0
 18 23  1  0
 23 24  1  0
 23 25  1  0
 23 26  1  0
 13  4  1  0
 22 15  1  0
 12  7  1  0
  1 27  1  0
  8 28  1  0
  9 29  1  0
 10 30  1  0
 11 31  1  0
 14 32  1  0
 14 33  1  0
 17 34  1  0
 21 35  1  0
 21 36  1  0
 21 37  1  0
M  END
$$$$
confid_1
     RDKit          3D

 37 39  0  0  0  0  0  0  0  0999 V2000
   24.5500   26.3900   36.2500 N   0  0  0  0  0  0  0  0  0  0  0  0
   25.6000   26.1300   35.4000 C   0  0  0  0  0  0  0  0  0  0  0  0
   25.4300   25.4300   34.4200 O   0  0  0  0  0  0  0  0  0  0  0  0
   26.9800   26.6300   35.7100 C   0  0  0  0  0  0  0  0  0  0  0  0
   27.3200   26.8200   36.9800 N   0  0  0  0  0  0  0  0  0  0  0  0
   28.4700   27.4000   37.3100 N   0  0  0  0  0  0  0  0  0  0  0  0
   29.4000   27.6300   36.3700 C   0  0  0  0  0  0  0  0  0  0  0  0
   30.6600   28.0500   36.8000 C   0  0  0  0  0  0  0  0  0  0  0  0
   31.5700   28.3600   35.7800 C   0  0  0  0  0  0  0  0  0  0  0  0
   31.3700   28.1000   34.4300 C   0  0  0  0  0  0  0  0  0  0  0  0
   30.1200   27.5900   34.0500 C   0  0  0  0  0  0  0  0  0  0  0  0
   29.1500   27.3400   35.0300 C   0  0  0  0  0  0  0  0  0  0  0  0
   27.8800   26.8900   34.6600 C   0  0  0  0  0  0  0  0  0  0  0  0
   27.4800   26.6100   33.3700 N   0  0  0  0  0  0  0  0  0  0  0  0
   23.2086   25.8937   36.0938 C   0  0  0  0  0  0  0  0  0  0  0  0
   22.8752   25.0708   35.0639 N   0  0  0  0  0  0  0  0  0  0  0  0
   21.6107   24.6007   34.9166 C   0  0  0  0  0  0  0  0  0  0  0  0
   20.6127   24.9592   35.8355 C   0  0  0  0  0  0  0  0  0  0  0  0
   20.9747   25.8094   36.8942 C   0  0  0  0  0  0  0  0  0  0  0  0
   20.0176   26.1971   37.8391 O   0  0  0  0  0  0  0  0  0  0  0  0
   20.3176   27.0546   38.9339 C   0  0  0  0  0  0  0  0  0  0  0  0
   22.2578   26.2523   36.9953 N   0  0  0  0  0  0  0  0  0  0  0  0
   19.1954   24.4552   35.7033 C   0  0  0  0  0  0  0  0  0  0  0  0
   18.8541   23.7348   36.8336 F   0  0  0  0  0  0  0  0  0  0  0  0
   19.0449   23.6356   34.5978 F   0  0  0  0  0  0  0  0  0  0  0  0
   18.3334   25.5291   35.5741 F   0  0  0  0  0  0  0  0  0  0  0  0
   24.7241   27.0146   37.0698 H   0  0  0  0  0  0  0  0  0  0  0  0
   30.8875   28.2367   37.8426 H   0  0  0  0  0  0  0  0  0  0  0  0
   32.5281   28.7695   36.0734 H   0  0  0  0  0  0  0  0  0  0  0  0
   32.1340   28.3195   33.6952 H   0  0  0  0  0  0  0  0  0  0  0  0
   29.9373   27.4178   32.9983 H   0  0  0  0  0  0  0  0  0  0  0  0
   26.5957   27.0142   32.9876 H   0  0  0  0  0  0  0  0  0  0  0  0
   28.1243   26.1389   32.6977 H   0  0  0  0  0  0  0  0  0  0  0  0
   21.3923   23.9488   34.0815 H   0  0  0  0  0  0  0  0  0  0  0  0
   21.0948   26.5913   39.5779 H   0  0  0  0  0  0  0  0  0  0  0  0
   19.3992   27.2120   39.5357 H   0  0  0  0  0  0  0  0  0  0  0  0
   20.6757   28.0372   38.5601 H   0  0  0  0  0  0  0  0  0  0  0  0
  1  2  1  0
  2  3  2  0
  2  4  1  0
  4  5  2  0
  5  6  1  0
  6  7  2  0
  7  8  1  0
  8  9  2  0
  9 10  1  0
 10 11  2  0
 11 12  1  0
 12 13  2  0
 13 14  1  0
  1 15  1  0
 15 16  2  0
 16 17  1  0
 17 18  2  0
 18 19  1  0
 19 20  1  0
 20 21  1  0
 19 22  2  0
 18 23  1  0
 23 24  1  0
 23 25  1  0
 23 26  1  0
 13  4  1  0
 22 15  1  0
 12  7  1  0
  1 27  1  0
  8 28  1  0
  9 29  1  0
 10 30  1  0
 11 31  1  0
 14 32  1  0
 14 33  1  0
 17 34  1  0
 21 35  1  0
 21 36  1  0
 21 37  1  0
M  END
$$$$
confid_2
     RDKit          3D

 37 39  0  0  0  0  0  0  0  0999 V2000
   24.5500   26.3900   36.2500 N   0  0  0  0  0  0  0  0  0  0  0  0
   25.6000   26.1300   35.4000 C   0  0  0  0  0  0  0  0  0  0  0  0
   25.4300   25.4300   34.4200 O   0  0  0  0  0  0  0  0  0  0  0  0
   26.9800   26.6300   35.7100 C   0  0  0  0  0  0  0  0  0  0  0  0
   27.3200   26.8200   36.9800 N   0  0  0  0  0  0  0  0  0  0  0  0
   28.4700   27.4000   37.3100 N   0  0  0  0  0  0  0  0  0  0  0  0
   29.4000   27.6300   36.3700 C   0  0  0  0  0  0  0  0  0  0  0  0
   30.6600   28.0500   36.8000 C   0  0  0  0  0  0  0  0  0  0  0  0
   31.5700   28.3600   35.7800 C   0  0  0  0  0  0  0  0  0  0  0  0
   31.3700   28.1000   34.4300 C   0  0  0  0  0  0  0  0  0  0  0  0
   30.1200   27.5900   34.0500 C   0  0  0  0  0  0  0  0  0  0  0  0
   29.1500   27.3400   35.0300 C   0  0  0  0  0  0  0  0  0  0  0  0
   27.8800   26.8900   34.6600 C   0  0  0  0  0  0  0  0  0  0  0  0
   27.4800   26.6100   33.3700 N   0  0  0  0  0  0  0  0  0  0  0  0
   23.2073   25.8988   36.0887 C   0  0  0  0  0  0  0  0  0  0  0  0
   22.2566   26.2495   36.9932 N   0  0  0  0  0  0  0  0  0  0  0  0
   20.9778   25.8084   36.8804 C   0  0  0  0  0  0  0  0  0  0  0  0
   20.6103   24.9720   35.8151 C   0  0  0  0  0  0  0  0  0  0  0  0
   21.6060   24.6186   34.8890 C   0  0  0  0  0  0  0  0  0  0  0  0
   21.2941   23.7867   33.8074 O   0  0  0  0  0  0  0  0  0  0  0  0
   22.2559   23.3930   32.8358 C   0  0  0  0  0  0  0  0  0  0  0  0
   22.8729   25.0887   35.0491 N   0  0  0  0  0  0  0  0  0  0  0  0
   19.1974   24.4625   35.6582 C   0  0  0  0  0  0  0  0  0  0  0  0
   19.1992   23.0797   35.6889 F   0  0  0  0  0  0  0  0  0  0  0  0
   18.6854   24.8872   34.4456 F   0  0  0  0  0  0  0  0  0  0  0  0
   18.3721   24.9235   36.6694 F   0  0  0  0  0  0  0  0  0  0  0  0
   24.7250   27.0096   37.0733 H   0  0  0  0  0  0  0  0  0  0  0  0
   30.8876   28.2364   37.8426 H   0  0  0  0  0  0  0  0  0  0  0  0
   32.5286   28.7682   36.0736 H   0  0  0  0  0  0  0  0  0  0  0  0
   32.1359   28.3141   33.6957 H   0  0  0  0  0  0  0  0  0  0  0  0
   29.9366   27.3921   33.0016 H   0  0  0  0  0  0  0  0  0  0  0  0
   27.5828   27.3392   32.6299 H   0  0  0  0  0  0  0  0  0  0  0  0
   27.4169   25.6173   33.0517 H   0  0  0  0  0  0  0  0  0  0  0  0
   20.2549   26.1141   37.6247 H   0  0  0  0  0  0  0  0  0  0  0  0
   22.6653   24.2883   32.3216 H   0  0  0  0  0  0  0  0  0  0  0  0
   21.7682   22.7385   32.0847 H   0  0  0  0  0  0  0  0  0  0  0  0
   23.0801   22.8302   33.3230 H   0  0  0  0  0  0  0  0  0  0  0  0
  1  2  1  0
  2  3  2  0
  2  4  1  0
  4  5  2  0
  5  6  1  0
  6  7  2  0
  7  8  1  0
  8  9  2  0
  9 10  1  0
 10 11  2  0
 11 12  1  0
 12 13  2  0
 13 14  1  0
  1 15  1  0
 15 16  2  0
 16 17  1  0
 17 18  2  0
 18 19  1  0
 19 20  1  0
 20 21  1  0
 19 22  2  0
 18 23  1  0
 23 24  1  0
 23 25  1  0
 23 26  1  0
 13  4  1  0
 22 15  1  0
 12  7  1  0
  1 27  1  0
  8 28  1  0
  9 29  1  0
 10 30  1  0
 11 31  1  0
 14 32  1  0
 14 33  1  0
 17 34  1  0
 21 35  1  0
 21 36  1  0
 21 37  1  0
M  END
$$$$
confid_3
     RDKit          3D

 37 39  0  0  0  0  0  0  0  0999 V2000
   24.5500   26.3900   36.2500 N   0  0  0  0  0  0  0  0  0  0  0  0
   25.6000   26.1300   35.4000 C   0  0  0  0  0  0  0  0  0  0  0  0
   25.4300   25.4300   34.4200 O   0  0  0  0  0  0  0  0  0  0  0  0
   26.9800   26.6300   35.7100 C   0  0  0  0  0  0  0  0  0  0  0  0
   27.3200   26.8200   36.9800 N   0  0  0  0  0  0  0  0  0  0  0  0
   28.4700   27.4000   37.3100 N   0  0  0  0  0  0  0  0  0  0  0  0
   29.4000   27.6300   36.3700 C   0  0  0  0  0  0  0  0  0  0  0  0
   30.6600   28.0500   36.8000 C   0  0  0  0  0  0  0  0  0  0  0  0
   31.5700   28.3600   35.7800 C   0  0  0  0  0  0  0  0  0  0  0  0
   31.3700   28.1000   34.4300 C   0  0  0  0  0  0  0  0  0  0  0  0
   30.1200   27.5900   34.0500 C   0  0  0  0  0  0  0  0  0  0  0  0
   29.1500   27.3400   35.0300 C   0  0  0  0  0  0  0  0  0  0  0  0
   27.8800   26.8900   34.6600 C   0  0  0  0  0  0  0  0  0  0  0  0
   27.4800   26.6100   33.3700 N   0  0  0  0  0  0  0  0  0  0  0  0
   23.2073   25.8988   36.0887 C   0  0  0  0  0  0  0  0  0  0  0  0
   22.2566   26.2495   36.9932 N   0  0  0  0  0  0  0  0  0  0  0  0
   20.9778   25.8084   36.8804 C   0  0  0  0  0  0  0  0  0  0  0  0
   20.6102   24.9720   35.8151 C   0  0  0  0  0  0  0  0  0  0  0  0
   21.6060   24.6186   34.8890 C   0  0  0  0  0  0  0  0  0  0  0  0
   21.2941   23.7867   33.8074 O   0  0  0  0  0  0  0  0  0  0  0  0
   22.2558   23.3931   32.8358 C   0  0  0  0  0  0  0  0  0  0  0  0
   22.8729   25.0887   35.0491 N   0  0  0  0  0  0  0  0  0  0  0  0
   19.1974   24.4625   35.6582 C   0  0  0  0  0  0  0  0  0  0  0  0
   18.3721   24.9235   36.6694 F   0  0  0  0  0  0  0  0  0  0  0  0
   19.1992   23.0797   35.6888 F   0  0  0  0  0  0  0  0  0  0  0  0
   18.6854   24.8872   34.4456 F   0  0  0  0  0  0  0  0  0  0  0  0
   24.7250   27.0096   37.0733 H   0  0  0  0  0  0  0  0  0  0  0  0
   30.8876   28.2364   37.8426 H   0  0  0  0  0  0  0  0  0  0  0  0
   32.5286   28.7682   36.0736 H   0  0  0  0  0  0  0  0  0  0  0  0
   32.1359   28.3141   33.6957 H   0  0  0  0  0  0  0  0  0  0  0  0
   29.9366   27.3921   33.0016 H   0  0  0  0  0  0  0  0  0  0  0  0
   27.4169   25.6173   33.0517 H   0  0  0  0  0  0  0  0  0  0  0  0
   27.5828   27.3392   32.6299 H   0  0  0  0  0  0  0  0  0  0  0  0
   20.2549   26.1141   37.6247 H   0  0  0  0  0  0  0  0  0  0  0  0
   22.6653   24.2883   32.3216 H   0  0  0  0  0  0  0  0  0  0  0  0
   23.0801   22.8302   33.3230 H   0  0  0  0  0  0  0  0  0  0  0  0
   21.7682   22.7385   32.0847 H   0  0  0  0  0  0  0  0  0  0  0  0
  1  2  1  0
  2  3  2  0
  2  4  1  0
  4  5  2  0
  5  6  1  0
  6  7  2  0
  7  8  1  0
  8  9  2  0
  9 10  1  0
 10 11  2  0
 11 12  1  0
 12 13  2  0
 13 14  1  0
  1 15  1  0
 15 16  2  0
 16 17  1  0
 17 18  2  0
 18 19  1  0
 19 20  1  0
 20 21  1  0
 19 22  2  0
 18 23  1  0
 23 24  1  0
 23 25  1  0
 23 26  1  0
 13  4  1  0
 22 15  1  0
 12  7  1  0
  1 27  1  0
  8 28  1  0
  9 29  1  0
 10 30  1  0
 11 31  1  0
 14 32  1  0
 14 33  1  0
 17 34  1  0
 21 35  1  0
 21 36  1  0
 21 37  1  0
M  END
$$$$
confid_4
     RDKit          3D

 37 39  0  0  0  0  0  0  0  0999 V2000
   24.5500   26.3900   36.2500 N   0  0  0  0  0  0  0  0  0  0  0  0
   25.6000   26.1300   35.4000 C   0  0  0  0  0  0  0  0  0  0  0  0
   25.4300   25.4300   34.4200 O   0  0  0  0  0  0  0  0  0  0  0  0
   26.9800   26.6300   35.7100 C   0  0  0  0  0  0  0  0  0  0  0  0
   27.3200   26.8200   36.9800 N   0  0  0  0  0  0  0  0  0  0  0  0
   28.4700   27.4000   37.3100 N   0  0  0  0  0  0  0  0  0  0  0  0
   29.4000   27.6300   36.3700 C   0  0  0  0  0  0  0  0  0  0  0  0
   30.6600   28.0500   36.8000 C   0  0  0  0  0  0  0  0  0  0  0  0
   31.5700   28.3600   35.7800 C   0  0  0  0  0  0  0  0  0  0  0  0
   31.3700   28.1000   34.4300 C   0  0  0  0  0  0  0  0  0  0  0  0
   30.1200   27.5900   34.0500 C   0  0  0  0  0  0  0  0  0  0  0  0
   29.1500   27.3400   35.0300 C   0  0  0  0  0  0  0  0  0  0  0  0
   27.8800   26.8900   34.6600 C   0  0  0  0  0  0  0  0  0  0  0  0
   27.4800   26.6100   33.3700 N   0  0  0  0  0  0  0  0  0  0  0  0
   23.2041   25.9104   36.0809 C   0  0  0  0  0  0  0  0  0  0  0  0
   22.2555   26.2537   36.9906 N   0  0  0  0  0  0  0  0  0  0  0  0
   20.9736   25.8238   36.8704 C   0  0  0  0  0  0  0  0  0  0  0  0
   20.6004   25.0074   35.7916 C   0  0  0  0  0  0  0  0  0  0  0  0
   21.5938   24.6619   34.8601 C   0  0  0  0  0  0  0  0  0  0  0  0
   21.2761   23.8501   33.7649 O   0  0  0  0  0  0  0  0  0  0  0  0
   22.2353   23.4656   32.7871 C   0  0  0  0  0  0  0  0  0  0  0  0
   22.8640   25.1200   35.0281 N   0  0  0  0  0  0  0  0  0  0  0  0
   19.1839   24.5109   35.6260 C   0  0  0  0  0  0  0  0  0  0  0  0
   19.1755   23.1278   35.6330 F   0  0  0  0  0  0  0  0  0  0  0  0
   18.3618   24.9605   36.6450 F   0  0  0  0  0  0  0  0  0  0  0  0
   18.6751   24.9601   34.4209 F   0  0  0  0  0  0  0  0  0  0  0  0
   24.7273   27.0013   37.0790 H   0  0  0  0  0  0  0  0  0  0  0  0
   30.8875   28.2367   37.8426 H   0  0  0  0  0  0  0  0  0  0  0  0
   32.5281   28.7695   36.0734 H   0  0  0  0  0  0  0  0  0  0  0  0
   32.1340   28.3195   33.6952 H   0  0  0  0  0  0  0  0  0  0  0  0
   29.9373   27.4178   32.9983 H   0  0  0  0  0  0  0  0  0  0  0  0
   28.1243   26.1388   32.6977 H   0  0  0  0  0  0  0  0  0  0  0  0
   26.5955   27.0138   32.9876 H   0  0  0  0  0  0  0  0  0  0  0  0
   20.2526   26.1228   37.6192 H   0  0  0  0  0  0  0  0  0  0  0  0
   21.7432   22.8270   32.0253 H   0  0  0  0  0  0  0  0  0  0  0  0
   22.6515   24.3662   32.2878 H   0  0  0  0  0  0  0  0  0  0  0  0
   23.0553   22.8888   33.2651 H   0  0  0  0  0  0  0  0  0  0  0  0
  1  2  1  0
  2  3  2  0
  2  4  1  0
  4  5  2  0
  5  6  1  0
  6  7  2  0
  7  8  1  0
  8  9  2  0
  9 10  1  0
 10 11  2  0
 11 12  1  0
 12 13  2  0
 13 14  1  0
  1 15  1  0
 15 16  2  0
 16 17  1  0
 17 18  2  0
 18 19  1  0
 19 20  1  0
 20 21  1  0
 19 22  2  0
 18 23  1  0
 23 24  1  0
 23 25  1  0
 23 26  1  0
 13  4  1  0
 22 15  1  0
 12  7  1  0
  1 27  1  0
  8 28  1  0
  9 29  1  0
 10 30  1  0
 11 31  1  0
 14 32  1  0
 14 33  1  0
 17 34  1  0
 21 35  1  0
 21 36  1  0
 21 37  1  0
M  END
$$$$
confid_5
     RDKit          3D

 37 39  0  0  0  0  0  0  0  0999 V2000
   24.5500   26.3900   36.2500 N   0  0  0  0  0  0  0  0  0  0  0  0
   25.6000   26.1300   35.4000 C   0  0  0  0  0  0  0  0  0  0  0  0
   25.4300   25.4300   34.4200 O   0  0  0  0  0  0  0  0  0  0  0  0
   26.9800   26.6300   35.7100 C   0  0  0  0  0  0  0  0  0  0  0  0
   27.3200   26.8200   36.9800 N   0  0  0  0  0  0  0  0  0  0  0  0
   28.4700   27.4000   37.3100 N   0  0  0  0  0  0  0  0  0  0  0  0
   29.4000   27.6300   36.3700 C   0  0  0  0  0  0  0  0  0  0  0  0
   30.6600   28.0500   36.8000 C   0  0  0  0  0  0  0  0  0  0  0  0
   31.5700   28.3600   35.7800 C   0  0  0  0  0  0  0  0  0  0  0  0
   31.3700   28.1000   34.4300 C   0  0  0  0  0  0  0  0  0  0  0  0
   30.1200   27.5900   34.0500 C   0  0  0  0  0  0  0  0  0  0  0  0
   29.1500   27.3400   35.0300 C   0  0  0  0  0  0  0  0  0  0  0  0
   27.8800   26.8900   34.6600 C   0  0  0  0  0  0  0  0  0  0  0  0
   27.4800   26.6100   33.3700 N   0  0  0  0  0  0  0  0  0  0  0  0
   23.2086   25.8937   36.0938 C   0  0  0  0  0  0  0  0  0  0  0  0
   22.8752   25.0707   35.0639 N   0  0  0  0  0  0  0  0  0  0  0  0
   21.6107   24.6007   34.9166 C   0  0  0  0  0  0  0  0  0  0  0  0
   20.6127   24.9592   35.8355 C   0  0  0  0  0  0  0  0  0  0  0  0
   20.9747   25.8094   36.8942 C   0  0  0  0  0  0  0  0  0  0  0  0
   20.0176   26.1971   37.8391 O   0  0  0  0  0  0  0  0  0  0  0  0
   20.3176   27.0546   38.9339 C   0  0  0  0  0  0  0  0  0  0  0  0
   22.2578   26.2523   36.9953 N   0  0  0  0  0  0  0  0  0  0  0  0
   19.1954   24.4551   35.7033 C   0  0  0  0  0  0  0  0  0  0  0  0
   18.3334   25.5291   35.5741 F   0  0  0  0  0  0  0  0  0  0  0  0
   18.8541   23.7348   36.8336 F   0  0  0  0  0  0  0  0  0  0  0  0
   19.0449   23.6356   34.5978 F   0  0  0  0  0  0  0  0  0  0  0  0
   24.7241   27.0146   37.0698 H   0  0  0  0  0  0  0  0  0  0  0  0
   30.8875   28.2367   37.8426 H   0  0  0  0  0  0  0  0  0  0  0  0
   32.5281   28.7695   36.0734 H   0  0  0  0  0  0  0  0  0  0  0  0
   32.1340   28.3195   33.6952 H   0  0  0  0  0  0  0  0  0  0  0  0
   29.9373   27.4178   32.9983 H   0  0  0  0  0  0  0  0  0  0  0  0
   26.5957   27.0142   32.9876 H   0  0  0  0  0  0  0  0  0  0  0  0
   28.1243   26.1389   32.6977 H   0  0  0  0  0  0  0  0  0  0  0  0
   21.3923   23.9487   34.0816 H   0  0  0  0  0  0  0  0  0  0  0  0
   19.3992   27.2120   39.5356 H   0  0  0  0  0  0  0  0  0  0  0  0
   20.6757   28.0372   38.5601 H   0  0  0  0  0  0  0  0  0  0  0  0
   21.0948   26.5913   39.5779 H   0  0  0  0  0  0  0  0  0  0  0  0
  1  2  1  0
  2  3  2  0
  2  4  1  0
  4  5  2  0
  5  6  1  0
  6  7  2  0
  7  8  1  0
  8  9  2  0
  9 10  1  0
 10 11  2  0
 11 12  1  0
 12 13  2  0
 13 14  1  0
  1 15  1  0
 15 16  2  0
 16 17  1  0
 17 18  2  0
 18 19  1  0
 19 20  1  0
 20 21  1  0
 19 22  2  0
 18 23  1  0
 23 24  1  0
 23 25  1  0
 23 26  1  0
 13  4  1  0
 22 15  1  0
 12  7  1  0
  1 27  1  0
  8 28  1  0
  9 29  1  0
 10 30  1  0
 11 31  1  0
 14 32  1  0
 14 33  1  0
 17 34  1  0
 21 35  1  0
 21 36  1  0
 21 37  1  0
M  END
$$$$
confid_6
     RDKit          3D

 37 39  0  0  0  0  0  0  0  0999 V2000
   24.5500   26.3900   36.2500 N   0  0  0  0  0  0  0  0  0  0  0  0
   25.6000   26.1300   35.4000 C   0  0  0  0  0  0  0  0  0  0  0  0
   25.4300   25.4300   34.4200 O   0  0  0  0  0  0  0  0  0  0  0  0
   26.9800   26.6300   35.7100 C   0  0  0  0  0  0  0  0  0  0  0  0
   27.3200   26.8200   36.9800 N   0  0  0  0  0  0  0  0  0  0  0  0
   28.4700   27.4000   37.3100 N   0  0  0  0  0  0  0  0  0  0  0  0
   29.4000   27.6300   36.3700 C   0  0  0  0  0  0  0  0  0  0  0  0
   30.6600   28.0500   36.8000 C   0  0  0  0  0  0  0  0  0  0  0  0
   31.5700   28.3600   35.7800 C   0  0  0  0  0  0  0  0  0  0  0  0
   31.3700   28.1000   34.4300 C   0  0  0  0  0  0  0  0  0  0  0  0
   30.1200   27.5900   34.0500 C   0  0  0  0  0  0  0  0  0  0  0  0
   29.1500   27.3400   35.0300 C   0  0  0  0  0  0  0  0  0  0  0  0
   27.8800   26.8900   34.6600 C   0  0  0  0  0  0  0  0  0  0  0  0
   27.4800   26.6100   33.3700 N   0  0  0  0  0  0  0  0  0  0  0  0
   23.2074   25.8988   36.0887 C   0  0  0  0  0  0  0  0  0  0  0  0
   22.2566   26.2495   36.9932 N   0  0  0  0  0  0  0  0  0  0  0  0
   20.9778   25.8084   36.8804 C   0  0  0  0  0  0  0  0  0  0  0  0
   20.6103   24.9720   35.8151 C   0  0  0  0  0  0  0  0  0  0  0  0
   21.6060   24.6186   34.8890 C   0  0  0  0  0  0  0  0  0  0  0  0
   21.2941   23.7867   33.8074 O   0  0  0  0  0  0  0  0  0  0  0  0
   22.2558   23.3930   32.8358 C   0  0  0  0  0  0  0  0  0  0  0  0
   22.8729   25.0887   35.0491 N   0  0  0  0  0  0  0  0  0  0  0  0
   19.1974   24.4625   35.6582 C   0  0  0  0  0  0  0  0  0  0  0  0
   18.3721   24.9235   36.6694 F   0  0  0  0  0  0  0  0  0  0  0  0
   18.6854   24.8872   34.4456 F   0  0  0  0  0  0  0  0  0  0  0  0
   19.1992   23.0797   35.6889 F   0  0  0  0  0  0  0  0  0  0  0  0
   24.7250   27.0096   37.0733 H   0  0  0  0  0  0  0  0  0  0  0  0
   30.8876   28.2364   37.8426 H   0  0  0  0  0  0  0  0  0  0  0  0
   32.5286   28.7682   36.0736 H   0  0  0  0  0  0  0  0  0  0  0  0
   32.1359   28.3141   33.6957 H   0  0  0  0  0  0  0  0  0  0  0  0
   29.9366   27.3921   33.0016 H   0  0  0  0  0  0  0  0  0  0  0  0
   27.4169   25.6173   33.0517 H   0  0  0  0  0  0  0  0  0  0  0  0
   27.5828   27.3392   32.6299 H   0  0  0  0  0  0  0  0  0  0  0  0
   20.2549   26.1141   37.6247 H   0  0  0  0  0  0  0  0  0  0  0  0
   22.6653   24.2883   32.3216 H   0  0  0  0  0  0  0  0  0  0  0  0
   21.7682   22.7385   32.0847 H   0  0  0  0  0  0  0  0  0  0  0  0
   23.0801   22.8302   33.3230 H   0  0  0  0  0  0  0  0  0  0  0  0
  1  2  1  0
  2  3  2  0
  2  4  1  0
  4  5  2  0
  5  6  1  0
  6  7  2  0
  7  8  1  0
  8  9  2  0
  9 10  1  0
 10 11  2  0
 11 12  1  0
 12 13  2  0
 13 14  1  0
  1 15  1  0
 15 16  2  0
 16 17  1  0
 17 18  2  0
 18 19  1  0
 19 20  1  0
 20 21  1  0
 19 22  2  0
 18 23  1  0
 23 24  1  0
 23 25  1  0
 23 26  1  0
 13  4  1  0
 22 15  1  0
 12  7  1  0
  1 27  1  0
  8 28  1  0
  9 29  1  0
 10 30  1  0
 11 31  1  0
 14 32  1  0
 14 33  1  0
 17 34  1  0
 21 35  1  0
 21 36  1  0
 21 37  1  0
M  END
$$$$
confid_7
     RDKit          3D

 37 39  0  0  0  0  0  0  0  0999 V2000
   24.5500   26.3900   36.2500 N   0  0  0  0  0  0  0  0  0  0  0  0
   25.6000   26.1300   35.4000 C   0  0  0  0  0  0  0  0  0  0  0  0
   25.4300   25.4300   34.4200 O   0  0  0  0  0  0  0  0  0  0  0  0
   26.9800   26.6300   35.7100 C   0  0  0  0  0  0  0  0  0  0  0  0
   27.3200   26.8200   36.9800 N   0  0  0  0  0  0  0  0  0  0  0  0
   28.4700   27.4000   37.3100 N   0  0  0  0  0  0  0  0  0  0  0  0
   29.4000   27.6300   36.3700 C   0  0  0  0  0  0  0  0  0  0  0  0
   30.6600   28.0500   36.8000 C   0  0  0  0  0  0  0  0  0  0  0  0
   31.5700   28.3600   35.7800 C   0  0  0  0  0  0  0  0  0  0  0  0
   31.3700   28.1000   34.4300 C   0  0  0  0  0  0  0  0  0  0  0  0
   30.1200   27.5900   34.0500 C   0  0  0  0  0  0  0  0  0  0  0  0
   29.1500   27.3400   35.0300 C   0  0  0  0  0  0  0  0  0  0  0  0
   27.8800   26.8900   34.6600 C   0  0  0  0  0  0  0  0  0  0  0  0
   27.4800   26.6100   33.3700 N   0  0  0  0  0  0  0  0  0  0  0  0
   23.2074   25.8988   36.0887 C   0  0  0  0  0  0  0  0  0  0  0  0
   22.2566   26.2495   36.9932 N   0  0  0  0  0  0  0  0  0  0  0  0
   20.9778   25.8084   36.8805 C   0  0  0  0  0  0  0  0  0  0  0  0
   20.6103   24.9720   35.8151 C   0  0  0  0  0  0  0  0  0  0  0  0
   21.6060   24.6186   34.8890 C   0  0  0  0  0  0  0  0  0  0  0  0
   21.2941   23.7867   33.8075 O   0  0  0  0  0  0  0  0  0  0  0  0
   22.2558   23.3930   32.8358 C   0  0  0  0  0  0  0  0  0  0  0  0
   22.8729   25.0887   35.0491 N   0  0  0  0  0  0  0  0  0  0  0  0
   19.1974   24.4625   35.6582 C   0  0  0  0  0  0  0  0  0  0  0  0
   18.6854   24.8872   34.4456 F   0  0  0  0  0  0  0  0  0  0  0  0
   19.1992   23.0797   35.6889 F   0  0  0  0  0  0  0  0  0  0  0  0
   18.3721   24.9234   36.6694 F   0  0  0  0  0  0  0  0  0  0  0  0
   24.7250   27.0096   37.0733 H   0  0  0  0  0  0  0  0  0  0  0  0
   30.8876   28.2364   37.8426 H   0  0  0  0  0  0  0  0  0  0  0  0
   32.5286   28.7682   36.0736 H   0  0  0  0  0  0  0  0  0  0  0  0
   32.1359   28.3141   33.6957 H   0  0  0  0  0  0  0  0  0  0  0  0
   29.9366   27.3921   33.0016 H   0  0  0  0  0  0  0  0  0  0  0  0
   27.4169   25.6173   33.0517 H   0  0  0  0  0  0  0  0  0  0  0  0
   27.5828   27.3392   32.6299 H   0  0  0  0  0  0  0  0  0  0  0  0
   20.2549   26.1141   37.6247 H   0  0  0  0  0  0  0  0  0  0  0  0
   23.0801   22.8302   33.3230 H   0  0  0  0  0  0  0  0  0  0  0  0
   21.7682   22.7385   32.0847 H   0  0  0  0  0  0  0  0  0  0  0  0
   22.6653   24.2883   32.3216 H   0  0  0  0  0  0  0  0  0  0  0  0
  1  2  1  0
  2  3  2  0
  2  4  1  0
  4  5  2  0
  5  6  1  0
  6  7  2  0
  7  8  1  0
  8  9  2  0
  9 10  1  0
 10 11  2  0
 11 12  1  0
 12 13  2  0
 13 14  1  0
  1 15  1  0
 15 16  2  0
 16 17  1  0
 17 18  2  0
 18 19  1  0
 19 20  1  0
 20 21  1  0
 19 22  2  0
 18 23  1  0
 23 24  1  0
 23 25  1  0
 23 26  1  0
 13  4  1  0
 22 15  1  0
 12  7  1  0
  1 27  1  0
  8 28  1  0
  9 29  1  0
 10 30  1  0
 11 31  1  0
 14 32  1  0
 14 33  1  0
 17 34  1  0
 21 35  1  0
 21 36  1  0
 21 37  1  0
M  END
$$$$
confid_8
     RDKit          3D

 37 39  0  0  0  0  0  0  0  0999 V2000
   24.5500   26.3900   36.2500 N   0  0  0  0  0  0  0  0  0  0  0  0
   25.6000   26.1300   35.4000 C   0  0  0  0  0  0  0  0  0  0  0  0
   25.4300   25.4300   34.4200 O   0  0  0  0  0  0  0  0  0  0  0  0
   26.9800   26.6300   35.7100 C   0  0  0  0  0  0  0  0  0  0  0  0
   27.3200   26.8200   36.9800 N   0  0  0  0  0  0  0  0  0  0  0  0
   28.4700   27.4000   37.3100 N   0  0  0  0  0  0  0  0  0  0  0  0
   29.4000   27.6300   36.3700 C   0  0  0  0  0  0  0  0  0  0  0  0
   30.6600   28.0500   36.8000 C   0  0  0  0  0  0  0  0  0  0  0  0
   31.5700   28.3600   35.7800 C   0  0  0  0  0  0  0  0  0  0  0  0
   31.3700   28.1000   34.4300 C   0  0  0  0  0  0  0  0  0  0  0  0
   30.1200   27.5900   34.0500 C   0  0  0  0  0  0  0  0  0  0  0  0
   29.1500   27.3400   35.0300 C   0  0  0  0  0  0  0  0  0  0  0  0
   27.8800   26.8900   34.6600 C   0  0  0  0  0  0  0  0  0  0  0  0
   27.4800   26.6100   33.3700 N   0  0  0  0  0  0  0  0  0  0  0  0
   23.2042   25.9099   36.0813 C   0  0  0  0  0  0  0  0  0  0  0  0
   22.2556   26.2535   36.9907 N   0  0  0  0  0  0  0  0  0  0  0  0
   20.9738   25.8231   36.8709 C   0  0  0  0  0  0  0  0  0  0  0  0
   20.6008   25.0057   35.7927 C   0  0  0  0  0  0  0  0  0  0  0  0
   21.5944   24.6598   34.8614 C   0  0  0  0  0  0  0  0  0  0  0  0
   21.2770   23.8471   33.7669 O   0  0  0  0  0  0  0  0  0  0  0  0
   22.2363   23.4621   32.7894 C   0  0  0  0  0  0  0  0  0  0  0  0
   22.8644   25.1185   35.0291 N   0  0  0  0  0  0  0  0  0  0  0  0
   19.1845   24.5086   35.6275 C   0  0  0  0  0  0  0  0  0  0  0  0
   18.6756   24.9566   34.4220 F   0  0  0  0  0  0  0  0  0  0  0  0
   18.3622   24.9588   36.6461 F   0  0  0  0  0  0  0  0  0  0  0  0
   19.1766   23.1255   35.6357 F   0  0  0  0  0  0  0  0  0  0  0  0
   24.7271   27.0017   37.0787 H   0  0  0  0  0  0  0  0  0  0  0  0
   30.8875   28.2367   37.8426 H   0  0  0  0  0  0  0  0  0  0  0  0
   32.5281   28.7695   36.0734 H   0  0  0  0  0  0  0  0  0  0  0  0
   32.1340   28.3195   33.6952 H   0  0  0  0  0  0  0  0  0  0  0  0
   29.9373   27.4178   32.9983 H   0  0  0  0  0  0  0  0  0  0  0  0
   26.5955   27.0138   32.9876 H   0  0  0  0  0  0  0  0  0  0  0  0
   28.1243   26.1388   32.6977 H   0  0  0  0  0  0  0  0  0  0  0  0
   20.2527   26.1225   37.6195 H   0  0  0  0  0  0  0  0  0  0  0  0
   23.0565   22.8859   33.2679 H   0  0  0  0  0  0  0  0  0  0  0  0
   22.6521   24.3624   32.2894 H   0  0  0  0  0  0  0  0  0  0  0  0
   21.7444   22.8228   32.0281 H   0  0  0  0  0  0  0  0  0  0  0  0
  1  2  1  0
  2  3  2  0
  2  4  1  0
  4  5  2  0
  5  6  1  0
  6  7  2  0
  7  8  1  0
  8  9  2  0
  9 10  1  0
 10 11  2  0
 11 12  1  0
 12 13  2  0
 13 14  1  0
  1 15  1  0
 15 16  2  0
 16 17  1  0
 17 18  2  0
 18 19  1  0
 19 20  1  0
 20 21  1  0
 19 22  2  0
 18 23  1  0
 23 24  1  0
 23 25  1  0
 23 26  1  0
 13  4  1  0
 22 15  1  0
 12  7  1  0
  1 27  1  0
  8 28  1  0
  9 29  1  0
 10 30  1  0
 11 31  1  0
 14 32  1  0
 14 33  1  0
 17 34  1  0
 21 35  1  0
 21 36  1  0
 21 37  1  0
M  END
$$$$
confid_9
     RDKit          3D

 37 39  0  0  0  0  0  0  0  0999 V2000
   24.5500   26.3900   36.2500 N   0  0  0  0  0  0  0  0  0  0  0  0
   25.6000   26.1300   35.4000 C   0  0  0  0  0  0  0  0  0  0  0  0
   25.4300   25.4300   34.4200 O   0  0  0  0  0  0  0  0  0  0  0  0
   26.9800   26.6300   35.7100 C   0  0  0  0  0  0  0  0  0  0  0  0
   27.3200   26.8200   36.9800 N   0  0  0  0  0  0  0  0  0  0  0  0
   28.4700   27.4000   37.3100 N   0  0  0  0  0  0  0  0  0  0  0  0
   29.4000   27.6300   36.3700 C   0  0  0  0  0  0  0  0  0  0  0  0
   30.6600   28.0500   36.8000 C   0  0  0  0  0  0  0  0  0  0  0  0
   31.5700   28.3600   35.7800 C   0  0  0  0  0  0  0  0  0  0  0  0
   31.3700   28.1000   34.4300 C   0  0  0  0  0  0  0  0  0  0  0  0
   30.1200   27.5900   34.0500 C   0  0  0  0  0  0  0  0  0  0  0  0
   29.1500   27.3400   35.0300 C   0  0  0  0  0  0  0  0  0  0  0  0
   27.8800   26.8900   34.6600 C   0  0  0  0  0  0  0  0  0  0  0  0
   27.4800   26.6100   33.3700 N   0  0  0  0  0  0  0  0  0  0  0  0
   23.2086   25.8937   36.0938 C   0  0  0  0  0  0  0  0  0  0  0  0
   22.8752   25.0707   35.0639 N   0  0  0  0  0  0  0  0  0  0  0  0
   21.6107   24.6006   34.9166 C   0  0  0  0  0  0  0  0  0  0  0  0
   20.6127   24.9592   35.8355 C   0  0  0  0  0  0  0  0  0  0  0  0
   20.9747   25.8094   36.8942 C   0  0  0  0  0  0  0  0  0  0  0  0
   20.0176   26.1971   37.8391 O   0  0  0  0  0  0  0  0  0  0  0  0
   20.3176   27.0546   38.9339 C   0  0  0  0  0  0  0  0  0  0  0  0
   22.2578   26.2523   36.9953 N   0  0  0  0  0  0  0  0  0  0  0  0
   19.1954   24.4551   35.7033 C   0  0  0  0  0  0  0  0  0  0  0  0
   19.0449   23.6356   34.5978 F   0  0  0  0  0  0  0  0  0  0  0  0
   18.8541   23.7348   36.8336 F   0  0  0  0  0  0  0  0  0  0  0  0
   18.3334   25.5291   35.5741 F   0  0  0  0  0  0  0  0  0  0  0  0
   24.7241   27.0146   37.0698 H   0  0  0  0  0  0  0  0  0  0  0  0
   30.8875   28.2367   37.8426 H   0  0  0  0  0  0  0  0  0  0  0  0
   32.5281   28.7695   36.0734 H   0  0  0  0  0  0  0  0  0  0  0  0
   32.1340   28.3195   33.6952 H   0  0  0  0  0  0  0  0  0  0  0  0
   29.9373   27.4178   32.9983 H   0  0  0  0  0  0  0  0  0  0  0  0
   28.1243   26.1389   32.6977 H   0  0  0  0  0  0  0  0  0  0  0  0
   26.5957   27.0142   32.9876 H   0  0  0  0  0  0  0  0  0  0  0  0
   21.3923   23.9487   34.0816 H   0  0  0  0  0  0  0  0  0  0  0  0
   21.0948   26.5913   39.5779 H   0  0  0  0  0  0  0  0  0  0  0  0
   19.3992   27.2120   39.5356 H   0  0  0  0  0  0  0  0  0  0  0  0
   20.6757   28.0372   38.5601 H   0  0  0  0  0  0  0  0  0  0  0  0
  1  2  1  0
  2  3  2  0
  2  4  1  0
  4  5  2  0
  5  6  1  0
  6  7  2  0
  7  8  1  0
  8  9  2  0
  9 10  1  0
 10 11  2  0
 11 12  1  0
 12 13  2  0
 13 14  1  0
  1 15  1  0
 15 16  2  0
 16 17  1  0
 17 18  2  0
 18 19  1  0
 19 20  1  0
 20 21  1  0
 19 22  2  0
 18 23  1  0
 23 24  1  0
 23 25  1  0
 23 26  1  0
 13  4  1  0
 22 15  1  0
 12  7  1  0
  1 27  1  0
  8 28  1  0
  9 29  1  0
 10 30  1  0
 11 31  1  0
 14 32  1  0
 14 33  1  0
 17 34  1  0
 21 35  1  0
 21 36  1  0
 21 37  1  0
M  END
$$$$
confid_10
     RDKit          3D

 37 39  0  0  0  0  0  0  0  0999 V2000
   24.5500   26.3900   36.2500 N   0  0  0  0  0  0  0  0  0  0  0  0
   25.6000   26.1300   35.4000 C   0  0  0  0  0  0  0  0  0  0  0  0
   25.4300   25.4300   34.4200 O   0  0  0  0  0  0  0  0  0  0  0  0
   26.9800   26.6300   35.7100 C   0  0  0  0  0  0  0  0  0  0  0  0
   27.3200   26.8200   36.9800 N   0  0  0  0  0  0  0  0  0  0  0  0
   28.4700   27.4000   37.3100 N   0  0  0  0  0  0  0  0  0  0  0  0
   29.4000   27.6300   36.3700 C   0  0  0  0  0  0  0  0  0  0  0  0
   30.6600   28.0500   36.8000 C   0  0  0  0  0  0  0  0  0  0  0  0
   31.5700   28.3600   35.7800 C   0  0  0  0  0  0  0  0  0  0  0  0
   31.3700   28.1000   34.4300 C   0  0  0  0  0  0  0  0  0  0  0  0
   30.1200   27.5900   34.0500 C   0  0  0  0  0  0  0  0  0  0  0  0
   29.1500   27.3400   35.0300 C   0  0  0  0  0  0  0  0  0  0  0  0
   27.8800   26.8900   34.6600 C   0  0  0  0  0  0  0  0  0  0  0  0
   27.4800   26.6100   33.3700 N   0  0  0  0  0  0  0  0  0  0  0  0
   23.2086   25.8937   36.0938 C   0  0  0  0  0  0  0  0  0  0  0  0
   22.8752   25.0707   35.0639 N   0  0  0  0  0  0  0  0  0  0  0  0
   21.6107   24.6007   34.9166 C   0  0  0  0  0  0  0  0  0  0  0  0
   20.6127   24.9592   35.8355 C   0  0  0  0  0  0  0  0  0  0  0  0
   20.9747   25.8094   36.8942 C   0  0  0  0  0  0  0  0  0  0  0  0
   20.0176   26.1971   37.8391 O   0  0  0  0  0  0  0  0  0  0  0  0
   20.3176   27.0546   38.9339 C   0  0  0  0  0  0  0  0  0  0  0  0
   22.2578   26.2523   36.9953 N   0  0  0  0  0  0  0  0  0  0  0  0
   19.1954   24.4551   35.7033 C   0  0  0  0  0  0  0  0  0  0  0  0
   18.3334   25.5291   35.5741 F   0  0  0  0  0  0  0  0  0  0  0  0
   19.0449   23.6356   34.5978 F   0  0  0  0  0  0  0  0  0  0  0  0
   18.8541   23.7348   36.8336 F   0  0  0  0  0  0  0  0  0  0  0  0
   24.7241   27.0146   37.0698 H   0  0  0  0  0  0  0  0  0  0  0  0
   30.8875   28.2367   37.8426 H   0  0  0  0  0  0  0  0  0  0  0  0
   32.5281   28.7695   36.0734 H   0  0  0  0  0  0  0  0  0  0  0  0
   32.1340   28.3195   33.6952 H   0  0  0  0  0  0  0  0  0  0  0  0
   29.9373   27.4178   32.9983 H   0  0  0  0  0  0  0  0  0  0  0  0
   28.1243   26.1389   32.6977 H   0  0  0  0  0  0  0  0  0  0  0  0
   26.5957   27.0142   32.9876 H   0  0  0  0  0  0  0  0  0  0  0  0
   21.3923   23.9487   34.0816 H   0  0  0  0  0  0  0  0  0  0  0  0
   21.0948   26.5913   39.5779 H   0  0  0  0  0  0  0  0  0  0  0  0
   20.6757   28.0372   38.5601 H   0  0  0  0  0  0  0  0  0  0  0  0
   19.3992   27.2120   39.5356 H   0  0  0  0  0  0  0  0  0  0  0  0
  1  2  1  0
  2  3  2  0
  2  4  1  0
  4  5  2  0
  5  6  1  0
  6  7  2  0
  7  8  1  0
  8  9  2  0
  9 10  1  0
 10 11  2  0
 11 12  1  0
 12 13  2  0
 13 14  1  0
  1 15  1  0
 15 16  2  0
 16 17  1  0
 17 18  2  0
 18 19  1  0
 19 20  1  0
 20 21  1  0
 19 22  2  0
 18 23  1  0
 23 24  1  0
 23 25  1  0
 23 26  1  0
 13  4  1  0
 22 15  1  0
 12  7  1  0
  1 27  1  0
  8 28  1  0
  9 29  1  0
 10 30  1  0
 11 31  1  0
 14 32  1  0
 14 33  1  0
 17 34  1  0
 21 35  1  0
 21 36  1  0
 21 37  1  0
M  END
$$$$
confid_11
     RDKit          3D

 37 39  0  0  0  0  0  0  0  0999 V2000
   24.5500   26.3900   36.2500 N   0  0  0  0  0  0  0  0  0  0  0  0
   25.6000   26.1300   35.4000 C   0  0  0  0  0  0  0  0  0  0  0  0
   25.4300   25.4300   34.4200 O   0  0  0  0  0  0  0  0  0  0  0  0
   26.9800   26.6300   35.7100 C   0  0  0  0  0  0  0  0  0  0  0  0
   27.3200   26.8200   36.9800 N   0  0  0  0  0  0  0  0  0  0  0  0
   28.4700   27.4000   37.3100 N   0  0  0  0  0  0  0  0  0  0  0  0
   29.4000   27.6300   36.3700 C   0  0  0  0  0  0  0  0  0  0  0  0
   30.6600   28.0500   36.8000 C   0  0  0  0  0  0  0  0  0  0  0  0
   31.5700   28.3600   35.7800 C   0  0  0  0  0  0  0  0  0  0  0  0
   31.3700   28.1000   34.4300 C   0  0  0  0  0  0  0  0  0  0  0  0
   30.1200   27.5900   34.0500 C   0  0  0  0  0  0  0  0  0  0  0  0
   29.1500   27.3400   35.0300 C   0  0  0  0  0  0  0  0  0  0  0  0
   27.8800   26.8900   34.6600 C   0  0  0  0  0  0  0  0  0  0  0  0
   27.4800   26.6100   33.3700 N   0  0  0  0  0  0  0  0  0  0  0  0
   23.2086   25.8937   36.0938 C   0  0  0  0  0  0  0  0  0  0  0  0
   22.8752   25.0707   35.0639 N   0  0  0  0  0  0  0  0  0  0  0  0
   21.6107   24.6006   34.9166 C   0  0  0  0  0  0  0  0  0  0  0  0
   20.6127   24.9592   35.8355 C   0  0  0  0  0  0  0  0  0  0  0  0
   20.9747   25.8094   36.8942 C   0  0  0  0  0  0  0  0  0  0  0  0
   20.0176   26.1971   37.8391 O   0  0  0  0  0  0  0  0  0  0  0  0
   20.3176   27.0546   38.9339 C   0  0  0  0  0  0  0  0  0  0  0  0
   22.2578   26.2523   36.9953 N   0  0  0  0  0  0  0  0  0  0  0  0
   19.1954   24.4551   35.7033 C   0  0  0  0  0  0  0  0  0  0  0  0
   19.0449   23.6356   34.5978 F   0  0  0  0  0  0  0  0  0  0  0  0
   18.3334   25.5291   35.5741 F   0  0  0  0  0  0  0  0  0  0  0  0
   18.8541   23.7348   36.8336 F   0  0  0  0  0  0  0  0  0  0  0  0
   24.7241   27.0146   37.0698 H   0  0  0  0  0  0  0  0  0  0  0  0
   30.8875   28.2367   37.8426 H   0  0  0  0  0  0  0  0  0  0  0  0
   32.5281   28.7695   36.0734 H   0  0  0  0  0  0  0  0  0  0  0  0
   32.1340   28.3195   33.6952 H   0  0  0  0  0  0  0  0  0  0  0  0
   29.9373   27.4178   32.9983 H   0  0  0  0  0  0  0  0  0  0  0  0
   28.1243   26.1389   32.6977 H   0  0  0  0  0  0  0  0  0  0  0  0
   26.5957   27.0142   32.9876 H   0  0  0  0  0  0  0  0  0  0  0  0
   21.3923   23.9487   34.0816 H   0  0  0  0  0  0  0  0  0  0  0  0
   20.6757   28.0372   38.5601 H   0  0  0  0  0  0  0  0  0  0  0  0
   21.0948   26.5913   39.5779 H   0  0  0  0  0  0  0  0  0  0  0  0
   19.3992   27.2120   39.5356 H   0  0  0  0  0  0  0  0  0  0  0  0
  1  2  1  0
  2  3  2  0
  2  4  1  0
  4  5  2  0
  5  6  1  0
  6  7  2  0
  7  8  1  0
  8  9  2  0
  9 10  1  0
 10 11  2  0
 11 12  1  0
 12 13  2  0
 13 14  1  0
  1 15  1  0
 15 16  2  0
 16 17  1  0
 17 18  2  0
 18 19  1  0
 19 20  1  0
 20 21  1  0
 19 22  2  0
 18 23  1  0
 23 24  1  0
 23 25  1  0
 23 26  1  0
 13  4  1  0
 22 15  1  0
 12  7  1  0
  1 27  1  0
  8 28  1  0
  9 29  1  0
 10 30  1  0
 11 31  1  0
 14 32  1  0
 14 33  1  0
 17 34  1  0
 21 35  1  0
 21 36  1  0
 21 37  1  0
M  END
$$$$
