confid_0
     RDKit          3D

 45 48  0  0  0  0  0  0  0  0999 V2000
   24.4800   26.1000   36.1300 N   0  0  0  0  0  0  0  0  0  0  0  0
   25.2500   26.2500   34.9900 C   0  0  0  0  0  0  0  0  0  0  0  0
   24.7400   25.7600   33.9900 O   0  0  0  0  0  0  0  0  0  0  0  0
   26.5900   26.8900   34.9600 C   0  0  0  0  0  0  0  0  0  0  0  0
   27.0600   27.2400   36.1600 N   0  0  0  0  0  0  0  0  0  0  0  0
   28.3000   27.7100   36.2400 N   0  0  0  0  0  0  0  0  0  0  0  0
   29.0500   27.9600   35.1500 C   0  0  0  0  0  0  0  0  0  0  0  0
   30.3400   28.4900   35.2600 C   0  0  0  0  0  0  0  0  0  0  0  0
   31.1100   28.8200   34.1400 C   0  0  0  0  0  0  0  0  0  0  0  0
   30.5200   28.6700   32.8800 C   0  0  0  0  0  0  0  0  0  0  0  0
   29.2900   28.0200   32.7700 C   0  0  0  0  0  0  0  0  0  0  0  0
   28.5200   27.7100   33.8900 C   0  0  0  0  0  0  0  0  0  0  0  0
   27.2700   27.0800   33.7600 C   0  0  0  0  0  0  0  0  0  0  0  0
   26.7500   26.8800   32.4900 N   0  0  0  0  0  0  0  0  0  0  0  0
   23.4645   25.0892   36.3012 C   0  0  0  0  0  0  0  0  0  0  0  0
   23.5852   23.9081   35.6370 N   0  0  0  0  0  0  0  0  0  0  0  0
   22.7031   22.8916   35.7874 C   0  0  0  0  0  0  0  0  0  0  0  0
   21.6401   23.0104   36.6874 C   0  0  0  0  0  0  0  0  0  0  0  0
   20.6744   21.9060   36.8707 C   0  0  0  0  0  0  0  0  0  0  0  0
   20.6808   20.9135   36.0916 O   0  0  0  0  0  0  0  0  0  0  0  0
   19.7154   21.9829   37.9365 N   0  0  0  0  0  0  0  0  0  0  0  0
   19.9297   22.9708   38.9979 C   0  0  0  0  0  0  0  0  0  0  0  0
   20.3273   24.3258   38.4004 C   0  0  0  0  0  0  0  0  0  0  0  0
   21.4911   24.2019   37.4292 C   0  0  0  0  0  0  0  0  0  0  0  0
   22.3743   25.2866   37.1838 C   0  0  0  0  0  0  0  0  0  0  0  0
   22.1684   26.6268   37.8539 C   0  0  0  0  0  0  0  0  0  0  0  0
   18.5842   21.0545   37.9829 C   0  0  0  0  0  0  0  0  0  0  0  0
   24.7011   26.7119   36.9467 H   0  0  0  0  0  0  0  0  0  0  0  0
   30.7582   28.6623   36.2441 H   0  0  0  0  0  0  0  0  0  0  0  0
   32.0994   29.2455   34.2469 H   0  0  0  0  0  0  0  0  0  0  0  0
   31.0715   28.9442   31.9898 H   0  0  0  0  0  0  0  0  0  0  0  0
   28.9437   27.8129   31.7669 H   0  0  0  0  0  0  0  0  0  0  0  0
   26.7156   27.6566   31.7926 H   0  0  0  0  0  0  0  0  0  0  0  0
   26.3617   25.9528   32.2111 H   0  0  0  0  0  0  0  0  0  0  0  0
   22.8493   21.9826   35.2187 H   0  0  0  0  0  0  0  0  0  0  0  0
   19.0143   23.1019   39.6145 H   0  0  0  0  0  0  0  0  0  0  0  0
   20.7443   22.6120   39.6643 H   0  0  0  0  0  0  0  0  0  0  0  0
   20.5904   24.9913   39.2496 H   0  0  0  0  0  0  0  0  0  0  0  0
   19.4570   24.7623   37.8646 H   0  0  0  0  0  0  0  0  0  0  0  0
   21.0896   26.8506   37.9832 H   0  0  0  0  0  0  0  0  0  0  0  0
   22.6702   26.6314   38.8438 H   0  0  0  0  0  0  0  0  0  0  0  0
   22.5664   27.4566   37.2342 H   0  0  0  0  0  0  0  0  0  0  0  0
   17.9558   21.2249   38.8823 H   0  0  0  0  0  0  0  0  0  0  0  0
   18.9572   20.0089   38.0134 H   0  0  0  0  0  0  0  0  0  0  0  0
   17.9524   21.1920   37.0801 H   0  0  0  0  0  0  0  0  0  0  0  0
  1  2  1  0
  2  3  2  0
  2  4  1  0
  4  5  2  0
  5  6  1  0
  6  7  2  0
  7  8  1  0
  8  9  2  0
  9 10  1  0
 10 11  2  0
 11 12  1  0
 12 13  2  0
 13 14  1  0
  1 15  1  0
 15 16  2  0
 16 17  1  0
 17 18  2  0
 18 19  1  0
 19 20  2  0
 19 21  1  0
 21 22  1  0
 22 23  1  0
 23 24  1  0
 24 25  2  0
 25 26  1  0
 21 27  1  0
 13  4  1  0
 25 15  1  0
 12  7  1  0
 24 18  1  0
  1 28  1  0
  8 29  1  0
  9 30  1  0
 10 31  1  0
 11 32  1  0
 14 33  1  0
 14 34  1  0
 17 35  1  0
 22 36  1  0
 22 37  1  0
 23 38  1  0
 23 39  1  0
 26 40  1  0
 26 41  1  0
 26 42  1  0
 27 43  1  0
 27 44  1  0
 27 45  1  0
M  END
$$$$
confid_1
     RDKit          3D

 45 48  0  0  0  0  0  0  0  0999 V2000
   24.4800   26.1000   36.1300 N   0  0  0  0  0  0  0  0  0  0  0  0
   25.2500   26.2500   34.9900 C   0  0  0  0  0  0  0  0  0  0  0  0
   24.7400   25.7600   33.9900 O   0  0  0  0  0  0  0  0  0  0  0  0
   26.5900   26.8900   34.9600 C   0  0  0  0  0  0  0  0  0  0  0  0
   27.0600   27.2400   36.1600 N   0  0  0  0  0  0  0  0  0  0  0  0
   28.3000   27.7100   36.2400 N   0  0  0  0  0  0  0  0  0  0  0  0
   29.0500   27.9600   35.1500 C   0  0  0  0  0  0  0  0  0  0  0  0
   30.3400   28.4900   35.2600 C   0  0  0  0  0  0  0  0  0  0  0  0
   31.1100   28.8200   34.1400 C   0  0  0  0  0  0  0  0  0  0  0  0
   30.5200   28.6700   32.8800 C   0  0  0  0  0  0  0  0  0  0  0  0
   29.2900   28.0200   32.7700 C   0  0  0  0  0  0  0  0  0  0  0  0
   28.5200   27.7100   33.8900 C   0  0  0  0  0  0  0  0  0  0  0  0
   27.2700   27.0800   33.7600 C   0  0  0  0  0  0  0  0  0  0  0  0
   26.7500   26.8800   32.4900 N   0  0  0  0  0  0  0  0  0  0  0  0
   23.0475   25.9289   36.1236 C   0  0  0  0  0  0  0  0  0  0  0  0
   22.3215   26.4530   35.0994 N   0  0  0  0  0  0  0  0  0  0  0  0
   20.9697   26.3852   35.0525 C   0  0  0  0  0  0  0  0  0  0  0  0
   20.2581   25.8000   36.1039 C   0  0  0  0  0  0  0  0  0  0  0  0
   18.7815   25.7299   36.0744 C   0  0  0  0  0  0  0  0  0  0  0  0
   18.1473   26.0234   35.0237 O   0  0  0  0  0  0  0  0  0  0  0  0
   18.0760   25.3050   37.2506 N   0  0  0  0  0  0  0  0  0  0  0  0
   18.8007   25.2667   38.5240 C   0  0  0  0  0  0  0  0  0  0  0  0
   20.1805   24.6247   38.3393 C   0  0  0  0  0  0  0  0  0  0  0  0
   20.9624   25.2706   37.2063 C   0  0  0  0  0  0  0  0  0  0  0  0
   22.3823   25.2712   37.1872 C   0  0  0  0  0  0  0  0  0  0  0  0
   23.1770   24.5928   38.2805 C   0  0  0  0  0  0  0  0  0  0  0  0
   16.6518   24.9732   37.1801 C   0  0  0  0  0  0  0  0  0  0  0  0
   24.9522   26.2039   37.0553 H   0  0  0  0  0  0  0  0  0  0  0  0
   30.7580   28.6629   36.2441 H   0  0  0  0  0  0  0  0  0  0  0  0
   32.0983   29.2480   34.2470 H   0  0  0  0  0  0  0  0  0  0  0  0
   31.0669   28.9543   31.9901 H   0  0  0  0  0  0  0  0  0  0  0  0
   28.9258   27.8587   31.7656 H   0  0  0  0  0  0  0  0  0  0  0  0
   27.2969   26.3788   31.7553 H   0  0  0  0  0  0  0  0  0  0  0  0
   25.7672   27.1501   32.2659 H   0  0  0  0  0  0  0  0  0  0  0  0
   20.4530   26.8107   34.2021 H   0  0  0  0  0  0  0  0  0  0  0  0
   18.2349   24.6944   39.2906 H   0  0  0  0  0  0  0  0  0  0  0  0
   18.9287   26.3064   38.8966 H   0  0  0  0  0  0  0  0  0  0  0  0
   20.7206   24.7315   39.3037 H   0  0  0  0  0  0  0  0  0  0  0  0
   20.0575   23.5423   38.1199 H   0  0  0  0  0  0  0  0  0  0  0  0
   22.6617   23.6806   38.6452 H   0  0  0  0  0  0  0  0  0  0  0  0
   23.3285   25.2972   39.1247 H   0  0  0  0  0  0  0  0  0  0  0  0
   24.1626   24.2433   37.9100 H   0  0  0  0  0  0  0  0  0  0  0  0
   16.5018   24.1204   36.4851 H   0  0  0  0  0  0  0  0  0  0  0  0
   16.0793   25.8507   36.8120 H   0  0  0  0  0  0  0  0  0  0  0  0
   16.2508   24.6906   38.1761 H   0  0  0  0  0  0  0  0  0  0  0  0
  1  2  1  0
  2  3  2  0
  2  4  1  0
  4  5  2  0
  5  6  1  0
  6  7  2  0
  7  8  1  0
  8  9  2  0
  9 10  1  0
 10 11  2  0
 11 12  1  0
 12 13  2  0
 13 14  1  0
  1 15  1  0
 15 16  2  0
 16 17  1  0
 17 18  2  0
 18 19  1  0
 19 20  2  0
 19 21  1  0
 21 22  1  0
 22 23  1  0
 23 24  1  0
 24 25  2  0
 25 26  1  0
 21 27  1  0
 13  4  1  0
 25 15  1  0
 12  7  1  0
 24 18  1  0
  1 28  1  0
  8 29  1  0
  9 30  1  0
 10 31  1  0
 11 32  1  0
 14 33  1  0
 14 34  1  0
 17 35  1  0
 22 36  1  0
 22 37  1  0
 23 38  1  0
 23 39  1  0
 26 40  1  0
 26 41  1  0
 26 42  1  0
 27 43  1  0
 27 44  1  0
 27 45  1  0
M  END
$$$$
