confid_0
     RDKit          3D

 40 43  0  0  0  0  0  0  0  0999 V2000
   24.2000   26.2400   35.6900 N   0  0  0  0  0  0  0  0  0  0  0  0
   24.8500   26.2800   34.4800 C   0  0  0  0  0  0  0  0  0  0  0  0
   24.3100   25.7400   33.5400 O   0  0  0  0  0  0  0  0  0  0  0  0
   26.1800   26.9700   34.4700 C   0  0  0  0  0  0  0  0  0  0  0  0
   26.6500   27.6000   35.5500 N   0  0  0  0  0  0  0  0  0  0  0  0
   27.7900   28.2700   35.6200 N   0  0  0  0  0  0  0  0  0  0  0  0
   28.5400   28.3000   34.5100 C   0  0  0  0  0  0  0  0  0  0  0  0
   29.7700   28.9400   34.5600 C   0  0  0  0  0  0  0  0  0  0  0  0
   30.7000   28.8900   33.5000 C   0  0  0  0  0  0  0  0  0  0  0  0
   30.3700   28.1400   32.3700 C   0  0  0  0  0  0  0  0  0  0  0  0
   29.1200   27.5200   32.2800 C   0  0  0  0  0  0  0  0  0  0  0  0
   28.2100   27.6100   33.3300 C   0  0  0  0  0  0  0  0  0  0  0  0
   26.9700   26.9700   33.3100 C   0  0  0  0  0  0  0  0  0  0  0  0
   26.5300   26.2400   32.2200 N   0  0  0  0  0  0  0  0  0  0  0  0
   30.1472   29.6688   35.7409 N   0  0  0  0  0  0  0  0  0  0  0  0
   31.0830   29.0560   36.6900 C   0  0  0  0  0  0  0  0  0  0  0  0
   31.9249   30.1257   37.3928 C   0  0  0  0  0  0  0  0  0  0  0  0
   31.0540   31.2051   37.9872 C   0  0  0  0  0  0  0  0  0  0  0  0
   31.4705   31.8801   39.1442 C   0  0  0  0  0  0  0  0  0  0  0  0
   30.7065   32.9262   39.6637 C   0  0  0  0  0  0  0  0  0  0  0  0
   29.5275   33.3196   39.0259 C   0  0  0  0  0  0  0  0  0  0  0  0
   29.1080   32.6672   37.8593 C   0  0  0  0  0  0  0  0  0  0  0  0
   27.9560   33.0612   37.2577 F   0  0  0  0  0  0  0  0  0  0  0  0
   29.8724   31.6075   37.3292 C   0  0  0  0  0  0  0  0  0  0  0  0
   29.4663   30.8857   36.1016 C   0  0  0  0  0  0  0  0  0  0  0  0
   28.5489   31.3398   35.3639 O   0  0  0  0  0  0  0  0  0  0  0  0
   28.5797   34.6379   39.6945 Cl  0  0  0  0  0  0  0  0  0  0  0  0
   23.2681   25.7737   35.7694 H   0  0  0  0  0  0  0  0  0  0  0  0
   24.5988   26.6539   36.5617 H   0  0  0  0  0  0  0  0  0  0  0  0
   31.6576   29.3908   33.5698 H   0  0  0  0  0  0  0  0  0  0  0  0
   31.0735   28.0603   31.5513 H   0  0  0  0  0  0  0  0  0  0  0  0
   28.8952   26.9545   31.3855 H   0  0  0  0  0  0  0  0  0  0  0  0
   26.6264   26.6231   31.2536 H   0  0  0  0  0  0  0  0  0  0  0  0
   26.3242   25.2204   32.3142 H   0  0  0  0  0  0  0  0  0  0  0  0
   30.5070   28.4792   37.4460 H   0  0  0  0  0  0  0  0  0  0  0  0
   31.7646   28.3517   36.1642 H   0  0  0  0  0  0  0  0  0  0  0  0
   32.5349   29.6365   38.1834 H   0  0  0  0  0  0  0  0  0  0  0  0
   32.6169   30.5901   36.6576 H   0  0  0  0  0  0  0  0  0  0  0  0
   32.3901   31.5986   39.6423 H   0  0  0  0  0  0  0  0  0  0  0  0
   31.0356   33.4352   40.5608 H   0  0  0  0  0  0  0  0  0  0  0  0
  1  2  1  0
  2  3  2  0
  2  4  1  0
  4  5  2  0
  5  6  1  0
  6  7  2  0
  7  8  1  0
  8  9  2  0
  9 10  1  0
 10 11  2  0
 11 12  1  0
 12 13  2  0
 13 14  1  0
  8 15  1  0
 15 16  1  0
 16 17  1  0
 17 18  1  0
 18 19  2  0
 19 20  1  0
 20 21  2  0
 21 22  1  0
 22 23  1  0
 22 24  2  0
 24 25  1  0
 25 26  2  0
 21 27  1  0
 13  4  1  0
 25 15  1  0
 12  7  1  0
 24 18  1  0
  1 28  1  0
  1 29  1  0
  9 30  1  0
 10 31  1  0
 11 32  1  0
 14 33  1  0
 14 34  1  0
 16 35  1  0
 16 36  1  0
 17 37  1  0
 17 38  1  0
 19 39  1  0
 20 40  1  0
M  END
$$$$
confid_1
     RDKit          3D

 40 43  0  0  0  0  0  0  0  0999 V2000
   24.2000   26.2400   35.6900 N   0  0  0  0  0  0  0  0  0  0  0  0
   24.8500   26.2800   34.4800 C   0  0  0  0  0  0  0  0  0  0  0  0
   24.3100   25.7400   33.5400 O   0  0  0  0  0  0  0  0  0  0  0  0
   26.1800   26.9700   34.4700 C   0  0  0  0  0  0  0  0  0  0  0  0
   26.6500   27.6000   35.5500 N   0  0  0  0  0  0  0  0  0  0  0  0
   27.7900   28.2700   35.6200 N   0  0  0  0  0  0  0  0  0  0  0  0
   28.5400   28.3000   34.5100 C   0  0  0  0  0  0  0  0  0  0  0  0
   29.7700   28.9400   34.5600 C   0  0  0  0  0  0  0  0  0  0  0  0
   30.7000   28.8900   33.5000 C   0  0  0  0  0  0  0  0  0  0  0  0
   30.3700   28.1400   32.3700 C   0  0  0  0  0  0  0  0  0  0  0  0
   29.1200   27.5200   32.2800 C   0  0  0  0  0  0  0  0  0  0  0  0
   28.2100   27.6100   33.3300 C   0  0  0  0  0  0  0  0  0  0  0  0
   26.9700   26.9700   33.3100 C   0  0  0  0  0  0  0  0  0  0  0  0
   26.5300   26.2400   32.2200 N   0  0  0  0  0  0  0  0  0  0  0  0
   30.1363   29.6762   35.7436 N   0  0  0  0  0  0  0  0  0  0  0  0
   31.3799   29.3498   36.4503 C   0  0  0  0  0  0  0  0  0  0  0  0
   31.2072   29.5430   37.9599 C   0  0  0  0  0  0  0  0  0  0  0  0
   30.6546   30.9107   38.2794 C   0  0  0  0  0  0  0  0  0  0  0  0
   30.9754   31.5219   39.5005 C   0  0  0  0  0  0  0  0  0  0  0  0
   30.4211   32.7573   39.8382 C   0  0  0  0  0  0  0  0  0  0  0  0
   29.5292   33.3887   38.9682 C   0  0  0  0  0  0  0  0  0  0  0  0
   29.1846   32.7829   37.7529 C   0  0  0  0  0  0  0  0  0  0  0  0
   28.3169   33.4154   36.9217 F   0  0  0  0  0  0  0  0  0  0  0  0
   29.7418   31.5355   37.4020 C   0  0  0  0  0  0  0  0  0  0  0  0
   29.4089   30.8593   36.1260 C   0  0  0  0  0  0  0  0  0  0  0  0
   28.4982   31.3105   35.3784 O   0  0  0  0  0  0  0  0  0  0  0  0
   28.8412   34.9423   39.4112 Cl  0  0  0  0  0  0  0  0  0  0  0  0
   24.5988   26.6540   36.5617 H   0  0  0  0  0  0  0  0  0  0  0  0
   23.2681   25.7737   35.7694 H   0  0  0  0  0  0  0  0  0  0  0  0
   31.6550   29.3960   33.5628 H   0  0  0  0  0  0  0  0  0  0  0  0
   31.0705   28.0667   31.5481 H   0  0  0  0  0  0  0  0  0  0  0  0
   28.8854   26.9769   31.3744 H   0  0  0  0  0  0  0  0  0  0  0  0
   25.6756   26.5399   31.6999 H   0  0  0  0  0  0  0  0  0  0  0  0
   27.1525   25.5359   31.7655 H   0  0  0  0  0  0  0  0  0  0  0  0
   32.1954   30.0087   36.0803 H   0  0  0  0  0  0  0  0  0  0  0  0
   31.6691   28.2934   36.2562 H   0  0  0  0  0  0  0  0  0  0  0  0
   32.1930   29.3961   38.4528 H   0  0  0  0  0  0  0  0  0  0  0  0
   30.5052   28.7749   38.3504 H   0  0  0  0  0  0  0  0  0  0  0  0
   31.6532   31.0394   40.1938 H   0  0  0  0  0  0  0  0  0  0  0  0
   30.6816   33.2211   40.7812 H   0  0  0  0  0  0  0  0  0  0  0  0
  1  2  1  0
  2  3  2  0
  2  4  1  0
  4  5  2  0
  5  6  1  0
  6  7  2  0
  7  8  1  0
  8  9  2  0
  9 10  1  0
 10 11  2  0
 11 12  1  0
 12 13  2  0
 13 14  1  0
  8 15  1  0
 15 16  1  0
 16 17  1  0
 17 18  1  0
 18 19  2  0
 19 20  1  0
 20 21  2  0
 21 22  1  0
 22 23  1  0
 22 24  2  0
 24 25  1  0
 25 26  2  0
 21 27  1  0
 13  4  1  0
 25 15  1  0
 12  7  1  0
 24 18  1  0
  1 28  1  0
  1 29  1  0
  9 30  1  0
 10 31  1  0
 11 32  1  0
 14 33  1  0
 14 34  1  0
 16 35  1  0
 16 36  1  0
 17 37  1  0
 17 38  1  0
 19 39  1  0
 20 40  1  0
M  END
$$$$
confid_2
     RDKit          3D

 40 43  0  0  0  0  0  0  0  0999 V2000
   24.2000   26.2400   35.6900 N   0  0  0  0  0  0  0  0  0  0  0  0
   24.8500   26.2800   34.4800 C   0  0  0  0  0  0  0  0  0  0  0  0
   24.3100   25.7400   33.5400 O   0  0  0  0  0  0  0  0  0  0  0  0
   26.1800   26.9700   34.4700 C   0  0  0  0  0  0  0  0  0  0  0  0
   26.6500   27.6000   35.5500 N   0  0  0  0  0  0  0  0  0  0  0  0
   27.7900   28.2700   35.6200 N   0  0  0  0  0  0  0  0  0  0  0  0
   28.5400   28.3000   34.5100 C   0  0  0  0  0  0  0  0  0  0  0  0
   29.7700   28.9400   34.5600 C   0  0  0  0  0  0  0  0  0  0  0  0
   30.7000   28.8900   33.5000 C   0  0  0  0  0  0  0  0  0  0  0  0
   30.3700   28.1400   32.3700 C   0  0  0  0  0  0  0  0  0  0  0  0
   29.1200   27.5200   32.2800 C   0  0  0  0  0  0  0  0  0  0  0  0
   28.2100   27.6100   33.3300 C   0  0  0  0  0  0  0  0  0  0  0  0
   26.9700   26.9700   33.3100 C   0  0  0  0  0  0  0  0  0  0  0  0
   26.5300   26.2400   32.2200 N   0  0  0  0  0  0  0  0  0  0  0  0
   30.1426   29.6567   35.7482 N   0  0  0  0  0  0  0  0  0  0  0  0
   30.7437   28.9236   36.8669 C   0  0  0  0  0  0  0  0  0  0  0  0
   30.3975   29.5934   38.2003 C   0  0  0  0  0  0  0  0  0  0  0  0
   30.7236   31.0670   38.1750 C   0  0  0  0  0  0  0  0  0  0  0  0
   31.0842   31.7210   39.3624 C   0  0  0  0  0  0  0  0  0  0  0  0
   31.3237   33.0959   39.3656 C   0  0  0  0  0  0  0  0  0  0  0  0
   31.1912   33.8352   38.1878 C   0  0  0  0  0  0  0  0  0  0  0  0
   30.8141   33.1997   36.9975 C   0  0  0  0  0  0  0  0  0  0  0  0
   30.6949   33.9364   35.8630 F   0  0  0  0  0  0  0  0  0  0  0  0
   30.5726   31.8104   36.9845 C   0  0  0  0  0  0  0  0  0  0  0  0
   30.1752   31.0955   35.7493 C   0  0  0  0  0  0  0  0  0  0  0  0
   29.8487   31.7358   34.7124 O   0  0  0  0  0  0  0  0  0  0  0  0
   31.4964   35.5642   38.2118 Cl  0  0  0  0  0  0  0  0  0  0  0  0
   24.5989   26.6538   36.5617 H   0  0  0  0  0  0  0  0  0  0  0  0
   23.2681   25.7737   35.7694 H   0  0  0  0  0  0  0  0  0  0  0  0
   31.6594   29.3869   33.5717 H   0  0  0  0  0  0  0  0  0  0  0  0
   31.0740   28.0594   31.5518 H   0  0  0  0  0  0  0  0  0  0  0  0
   28.8953   26.9543   31.3856 H   0  0  0  0  0  0  0  0  0  0  0  0
   26.3242   25.2204   32.3142 H   0  0  0  0  0  0  0  0  0  0  0  0
   26.6264   26.6231   31.2536 H   0  0  0  0  0  0  0  0  0  0  0  0
   30.3763   27.8741   36.8857 H   0  0  0  0  0  0  0  0  0  0  0  0
   31.8475   28.9012   36.7359 H   0  0  0  0  0  0  0  0  0  0  0  0
   30.9605   29.0832   39.0121 H   0  0  0  0  0  0  0  0  0  0  0  0
   29.3112   29.4718   38.4011 H   0  0  0  0  0  0  0  0  0  0  0  0
   31.1763   31.1660   40.2879 H   0  0  0  0  0  0  0  0  0  0  0  0
   31.6072   33.5877   40.2875 H   0  0  0  0  0  0  0  0  0  0  0  0
  1  2  1  0
  2  3  2  0
  2  4  1  0
  4  5  2  0
  5  6  1  0
  6  7  2  0
  7  8  1  0
  8  9  2  0
  9 10  1  0
 10 11  2  0
 11 12  1  0
 12 13  2  0
 13 14  1  0
  8 15  1  0
 15 16  1  0
 16 17  1  0
 17 18  1  0
 18 19  2  0
 19 20  1  0
 20 21  2  0
 21 22  1  0
 22 23  1  0
 22 24  2  0
 24 25  1  0
 25 26  2  0
 21 27  1  0
 13  4  1  0
 25 15  1  0
 12  7  1  0
 24 18  1  0
  1 28  1  0
  1 29  1  0
  9 30  1  0
 10 31  1  0
 11 32  1  0
 14 33  1  0
 14 34  1  0
 16 35  1  0
 16 36  1  0
 17 37  1  0
 17 38  1  0
 19 39  1  0
 20 40  1  0
M  END
$$$$
confid_3
     RDKit          3D

 40 43  0  0  0  0  0  0  0  0999 V2000
   24.2000   26.2400   35.6900 N   0  0  0  0  0  0  0  0  0  0  0  0
   24.8500   26.2800   34.4800 C   0  0  0  0  0  0  0  0  0  0  0  0
   24.3100   25.7400   33.5400 O   0  0  0  0  0  0  0  0  0  0  0  0
   26.1800   26.9700   34.4700 C   0  0  0  0  0  0  0  0  0  0  0  0
   26.6500   27.6000   35.5500 N   0  0  0  0  0  0  0  0  0  0  0  0
   27.7900   28.2700   35.6200 N   0  0  0  0  0  0  0  0  0  0  0  0
   28.5400   28.3000   34.5100 C   0  0  0  0  0  0  0  0  0  0  0  0
   29.7700   28.9400   34.5600 C   0  0  0  0  0  0  0  0  0  0  0  0
   30.7000   28.8900   33.5000 C   0  0  0  0  0  0  0  0  0  0  0  0
   30.3700   28.1400   32.3700 C   0  0  0  0  0  0  0  0  0  0  0  0
   29.1200   27.5200   32.2800 C   0  0  0  0  0  0  0  0  0  0  0  0
   28.2100   27.6100   33.3300 C   0  0  0  0  0  0  0  0  0  0  0  0
   26.9700   26.9700   33.3100 C   0  0  0  0  0  0  0  0  0  0  0  0
   26.5300   26.2400   32.2200 N   0  0  0  0  0  0  0  0  0  0  0  0
   30.1418   29.6876   35.7343 N   0  0  0  0  0  0  0  0  0  0  0  0
   29.3377   30.8384   36.1630 C   0  0  0  0  0  0  0  0  0  0  0  0
   30.2412   31.9688   36.6647 C   0  0  0  0  0  0  0  0  0  0  0  0
   31.2122   31.4708   37.7077 C   0  0  0  0  0  0  0  0  0  0  0  0
   31.6638   32.3413   38.7106 C   0  0  0  0  0  0  0  0  0  0  0  0
   32.6100   31.9130   39.6428 C   0  0  0  0  0  0  0  0  0  0  0  0
   33.1265   30.6168   39.5752 C   0  0  0  0  0  0  0  0  0  0  0  0
   32.6990   29.7412   38.5685 C   0  0  0  0  0  0  0  0  0  0  0  0
   33.2122   28.4848   38.5227 F   0  0  0  0  0  0  0  0  0  0  0  0
   31.7414   30.1646   37.6238 C   0  0  0  0  0  0  0  0  0  0  0  0
   31.2583   29.2732   36.5433 C   0  0  0  0  0  0  0  0  0  0  0  0
   31.8179   28.1633   36.3267 O   0  0  0  0  0  0  0  0  0  0  0  0
   34.3167   30.0964   40.7567 Cl  0  0  0  0  0  0  0  0  0  0  0  0
   23.2681   25.7737   35.7694 H   0  0  0  0  0  0  0  0  0  0  0  0
   24.5988   26.6539   36.5617 H   0  0  0  0  0  0  0  0  0  0  0  0
   31.6554   29.3955   33.5656 H   0  0  0  0  0  0  0  0  0  0  0  0
   31.0729   28.0615   31.5507 H   0  0  0  0  0  0  0  0  0  0  0  0
   28.8951   26.9547   31.3854 H   0  0  0  0  0  0  0  0  0  0  0  0
   26.6263   26.6231   31.2536 H   0  0  0  0  0  0  0  0  0  0  0  0
   26.3242   25.2204   32.3142 H   0  0  0  0  0  0  0  0  0  0  0  0
   28.6530   30.5235   36.9803 H   0  0  0  0  0  0  0  0  0  0  0  0
   28.7216   31.2183   35.3184 H   0  0  0  0  0  0  0  0  0  0  0  0
   30.8173   32.3856   35.8106 H   0  0  0  0  0  0  0  0  0  0  0  0
   29.6021   32.7777   37.0813 H   0  0  0  0  0  0  0  0  0  0  0  0
   31.2854   33.3544   38.7687 H   0  0  0  0  0  0  0  0  0  0  0  0
   32.9459   32.5927   40.4157 H   0  0  0  0  0  0  0  0  0  0  0  0
  1  2  1  0
  2  3  2  0
  2  4  1  0
  4  5  2  0
  5  6  1  0
  6  7  2  0
  7  8  1  0
  8  9  2  0
  9 10  1  0
 10 11  2  0
 11 12  1  0
 12 13  2  0
 13 14  1  0
  8 15  1  0
 15 16  1  0
 16 17  1  0
 17 18  1  0
 18 19  2  0
 19 20  1  0
 20 21  2  0
 21 22  1  0
 22 23  1  0
 22 24  2  0
 24 25  1  0
 25 26  2  0
 21 27  1  0
 13  4  1  0
 25 15  1  0
 12  7  1  0
 24 18  1  0
  1 28  1  0
  1 29  1  0
  9 30  1  0
 10 31  1  0
 11 32  1  0
 14 33  1  0
 14 34  1  0
 16 35  1  0
 16 36  1  0
 17 37  1  0
 17 38  1  0
 19 39  1  0
 20 40  1  0
M  END
$$$$
confid_4
     RDKit          3D

 40 43  0  0  0  0  0  0  0  0999 V2000
   24.2000   26.2400   35.6900 N   0  0  0  0  0  0  0  0  0  0  0  0
   24.8500   26.2800   34.4800 C   0  0  0  0  0  0  0  0  0  0  0  0
   24.3100   25.7400   33.5400 O   0  0  0  0  0  0  0  0  0  0  0  0
   26.1800   26.9700   34.4700 C   0  0  0  0  0  0  0  0  0  0  0  0
   26.6500   27.6000   35.5500 N   0  0  0  0  0  0  0  0  0  0  0  0
   27.7900   28.2700   35.6200 N   0  0  0  0  0  0  0  0  0  0  0  0
   28.5400   28.3000   34.5100 C   0  0  0  0  0  0  0  0  0  0  0  0
   29.7700   28.9400   34.5600 C   0  0  0  0  0  0  0  0  0  0  0  0
   30.7000   28.8900   33.5000 C   0  0  0  0  0  0  0  0  0  0  0  0
   30.3700   28.1400   32.3700 C   0  0  0  0  0  0  0  0  0  0  0  0
   29.1200   27.5200   32.2800 C   0  0  0  0  0  0  0  0  0  0  0  0
   28.2100   27.6100   33.3300 C   0  0  0  0  0  0  0  0  0  0  0  0
   26.9700   26.9700   33.3100 C   0  0  0  0  0  0  0  0  0  0  0  0
   26.5300   26.2400   32.2200 N   0  0  0  0  0  0  0  0  0  0  0  0
   30.1544   29.6655   35.7418 N   0  0  0  0  0  0  0  0  0  0  0  0
   30.4281   28.9484   36.9927 C   0  0  0  0  0  0  0  0  0  0  0  0
   31.6212   29.5741   37.7216 C   0  0  0  0  0  0  0  0  0  0  0  0
   31.4411   31.0638   37.8871 C   0  0  0  0  0  0  0  0  0  0  0  0
   32.0111   31.7163   38.9903 C   0  0  0  0  0  0  0  0  0  0  0  0
   31.9076   33.1020   39.1210 C   0  0  0  0  0  0  0  0  0  0  0  0
   31.2477   33.8527   38.1450 C   0  0  0  0  0  0  0  0  0  0  0  0
   30.6889   33.2179   37.0281 C   0  0  0  0  0  0  0  0  0  0  0  0
   30.0490   33.9660   36.0928 F   0  0  0  0  0  0  0  0  0  0  0  0
   30.7862   31.8180   36.8893 C   0  0  0  0  0  0  0  0  0  0  0  0
   30.2092   31.1032   35.7270 C   0  0  0  0  0  0  0  0  0  0  0  0
   29.7775   31.7414   34.7281 O   0  0  0  0  0  0  0  0  0  0  0  0
   31.1285   35.5951   38.3268 Cl  0  0  0  0  0  0  0  0  0  0  0  0
   24.5989   26.6537   36.5617 H   0  0  0  0  0  0  0  0  0  0  0  0
   23.2681   25.7737   35.7694 H   0  0  0  0  0  0  0  0  0  0  0  0
   31.6593   29.3873   33.5710 H   0  0  0  0  0  0  0  0  0  0  0  0
   31.0739   28.0596   31.5517 H   0  0  0  0  0  0  0  0  0  0  0  0
   28.8953   26.9543   31.3856 H   0  0  0  0  0  0  0  0  0  0  0  0
   26.6264   26.6231   31.2536 H   0  0  0  0  0  0  0  0  0  0  0  0
   26.3242   25.2204   32.3142 H   0  0  0  0  0  0  0  0  0  0  0  0
   30.6521   27.8787   36.7858 H   0  0  0  0  0  0  0  0  0  0  0  0
   29.5305   28.9967   37.6467 H   0  0  0  0  0  0  0  0  0  0  0  0
   31.7316   29.0818   38.7125 H   0  0  0  0  0  0  0  0  0  0  0  0
   32.5476   29.3893   37.1362 H   0  0  0  0  0  0  0  0  0  0  0  0
   32.5395   31.1516   39.7485 H   0  0  0  0  0  0  0  0  0  0  0  0
   32.3467   33.5928   39.9803 H   0  0  0  0  0  0  0  0  0  0  0  0
  1  2  1  0
  2  3  2  0
  2  4  1  0
  4  5  2  0
  5  6  1  0
  6  7  2  0
  7  8  1  0
  8  9  2  0
  9 10  1  0
 10 11  2  0
 11 12  1  0
 12 13  2  0
 13 14  1  0
  8 15  1  0
 15 16  1  0
 16 17  1  0
 17 18  1  0
 18 19  2  0
 19 20  1  0
 20 21  2  0
 21 22  1  0
 22 23  1  0
 22 24  2  0
 24 25  1  0
 25 26  2  0
 21 27  1  0
 13  4  1  0
 25 15  1  0
 12  7  1  0
 24 18  1  0
  1 28  1  0
  1 29  1  0
  9 30  1  0
 10 31  1  0
 11 32  1  0
 14 33  1  0
 14 34  1  0
 16 35  1  0
 16 36  1  0
 17 37  1  0
 17 38  1  0
 19 39  1  0
 20 40  1  0
M  END
$$$$
confid_5
     RDKit          3D

 40 43  0  0  0  0  0  0  0  0999 V2000
   24.2000   26.2400   35.6900 N   0  0  0  0  0  0  0  0  0  0  0  0
   24.8500   26.2800   34.4800 C   0  0  0  0  0  0  0  0  0  0  0  0
   24.3100   25.7400   33.5400 O   0  0  0  0  0  0  0  0  0  0  0  0
   26.1800   26.9700   34.4700 C   0  0  0  0  0  0  0  0  0  0  0  0
   26.6500   27.6000   35.5500 N   0  0  0  0  0  0  0  0  0  0  0  0
   27.7900   28.2700   35.6200 N   0  0  0  0  0  0  0  0  0  0  0  0
   28.5400   28.3000   34.5100 C   0  0  0  0  0  0  0  0  0  0  0  0
   29.7700   28.9400   34.5600 C   0  0  0  0  0  0  0  0  0  0  0  0
   30.7000   28.8900   33.5000 C   0  0  0  0  0  0  0  0  0  0  0  0
   30.3700   28.1400   32.3700 C   0  0  0  0  0  0  0  0  0  0  0  0
   29.1200   27.5200   32.2800 C   0  0  0  0  0  0  0  0  0  0  0  0
   28.2100   27.6100   33.3300 C   0  0  0  0  0  0  0  0  0  0  0  0
   26.9700   26.9700   33.3100 C   0  0  0  0  0  0  0  0  0  0  0  0
   26.5300   26.2400   32.2200 N   0  0  0  0  0  0  0  0  0  0  0  0
   30.1301   29.6794   35.7403 N   0  0  0  0  0  0  0  0  0  0  0  0
   29.5256   30.9961   35.9714 C   0  0  0  0  0  0  0  0  0  0  0  0
   29.3882   31.2739   37.4715 C   0  0  0  0  0  0  0  0  0  0  0  0
   30.6983   31.0601   38.1894 C   0  0  0  0  0  0  0  0  0  0  0  0
   30.9943   31.8087   39.3381 C   0  0  0  0  0  0  0  0  0  0  0  0
   32.1723   31.5739   40.0487 C   0  0  0  0  0  0  0  0  0  0  0  0
   33.0598   30.5799   39.6293 C   0  0  0  0  0  0  0  0  0  0  0  0
   32.7694   29.8114   38.4944 C   0  0  0  0  0  0  0  0  0  0  0  0
   33.6477   28.8532   38.1012 F   0  0  0  0  0  0  0  0  0  0  0  0
   31.5827   30.0436   37.7690 C   0  0  0  0  0  0  0  0  0  0  0  0
   31.2350   29.2577   36.5623 C   0  0  0  0  0  0  0  0  0  0  0  0
   31.8804   28.2141   36.2686 O   0  0  0  0  0  0  0  0  0  0  0  0
   34.5368   30.2990   40.5364 Cl  0  0  0  0  0  0  0  0  0  0  0  0
   24.5988   26.6539   36.5617 H   0  0  0  0  0  0  0  0  0  0  0  0
   23.2681   25.7737   35.7694 H   0  0  0  0  0  0  0  0  0  0  0  0
   31.6548   29.3965   33.5656 H   0  0  0  0  0  0  0  0  0  0  0  0
   31.0706   28.0665   31.5482 H   0  0  0  0  0  0  0  0  0  0  0  0
   28.8854   26.9768   31.3744 H   0  0  0  0  0  0  0  0  0  0  0  0
   25.6756   26.5399   31.6999 H   0  0  0  0  0  0  0  0  0  0  0  0
   27.1525   25.5358   31.7655 H   0  0  0  0  0  0  0  0  0  0  0  0
   30.1658   31.7763   35.5051 H   0  0  0  0  0  0  0  0  0  0  0  0
   28.5188   31.0516   35.5023 H   0  0  0  0  0  0  0  0  0  0  0  0
   28.6279   30.5883   37.9039 H   0  0  0  0  0  0  0  0  0  0  0  0
   29.0335   32.3186   37.6094 H   0  0  0  0  0  0  0  0  0  0  0  0
   30.3100   32.5726   39.6862 H   0  0  0  0  0  0  0  0  0  0  0  0
   32.3921   32.1627   40.9302 H   0  0  0  0  0  0  0  0  0  0  0  0
  1  2  1  0
  2  3  2  0
  2  4  1  0
  4  5  2  0
  5  6  1  0
  6  7  2  0
  7  8  1  0
  8  9  2  0
  9 10  1  0
 10 11  2  0
 11 12  1  0
 12 13  2  0
 13 14  1  0
  8 15  1  0
 15 16  1  0
 16 17  1  0
 17 18  1  0
 18 19  2  0
 19 20  1  0
 20 21  2  0
 21 22  1  0
 22 23  1  0
 22 24  2  0
 24 25  1  0
 25 26  2  0
 21 27  1  0
 13  4  1  0
 25 15  1  0
 12  7  1  0
 24 18  1  0
  1 28  1  0
  1 29  1  0
  9 30  1  0
 10 31  1  0
 11 32  1  0
 14 33  1  0
 14 34  1  0
 16 35  1  0
 16 36  1  0
 17 37  1  0
 17 38  1  0
 19 39  1  0
 20 40  1  0
M  END
$$$$
confid_6
     RDKit          3D

 40 43  0  0  0  0  0  0  0  0999 V2000
   24.2000   26.2400   35.6900 N   0  0  0  0  0  0  0  0  0  0  0  0
   24.8500   26.2800   34.4800 C   0  0  0  0  0  0  0  0  0  0  0  0
   24.3100   25.7400   33.5400 O   0  0  0  0  0  0  0  0  0  0  0  0
   26.1800   26.9700   34.4700 C   0  0  0  0  0  0  0  0  0  0  0  0
   26.6500   27.6000   35.5500 N   0  0  0  0  0  0  0  0  0  0  0  0
   27.7900   28.2700   35.6200 N   0  0  0  0  0  0  0  0  0  0  0  0
   28.5400   28.3000   34.5100 C   0  0  0  0  0  0  0  0  0  0  0  0
   29.7700   28.9400   34.5600 C   0  0  0  0  0  0  0  0  0  0  0  0
   30.7000   28.8900   33.5000 C   0  0  0  0  0  0  0  0  0  0  0  0
   30.3700   28.1400   32.3700 C   0  0  0  0  0  0  0  0  0  0  0  0
   29.1200   27.5200   32.2800 C   0  0  0  0  0  0  0  0  0  0  0  0
   28.2100   27.6100   33.3300 C   0  0  0  0  0  0  0  0  0  0  0  0
   26.9700   26.9700   33.3100 C   0  0  0  0  0  0  0  0  0  0  0  0
   26.5300   26.2400   32.2200 N   0  0  0  0  0  0  0  0  0  0  0  0
   30.1437   29.6642   35.7463 N   0  0  0  0  0  0  0  0  0  0  0  0
   30.3981   31.1058   35.6622 C   0  0  0  0  0  0  0  0  0  0  0  0
   29.9905   31.8007   36.9650 C   0  0  0  0  0  0  0  0  0  0  0  0
   30.6129   31.1290   38.1650 C   0  0  0  0  0  0  0  0  0  0  0  0
   30.8933   31.8818   39.3149 C   0  0  0  0  0  0  0  0  0  0  0  0
   31.4082   31.2632   40.4550 C   0  0  0  0  0  0  0  0  0  0  0  0
   31.6347   29.8849   40.4650 C   0  0  0  0  0  0  0  0  0  0  0  0
   31.3430   29.1161   39.3308 C   0  0  0  0  0  0  0  0  0  0  0  0
   31.5726   27.7781   39.3621 F   0  0  0  0  0  0  0  0  0  0  0  0
   30.8245   29.7330   38.1732 C   0  0  0  0  0  0  0  0  0  0  0  0
   30.5051   28.9606   36.9496 C   0  0  0  0  0  0  0  0  0  0  0  0
   30.5452   27.6995   36.9563 O   0  0  0  0  0  0  0  0  0  0  0  0
   32.2822   29.1246   41.9093 Cl  0  0  0  0  0  0  0  0  0  0  0  0
   24.5989   26.6537   36.5617 H   0  0  0  0  0  0  0  0  0  0  0  0
   23.2681   25.7737   35.7694 H   0  0  0  0  0  0  0  0  0  0  0  0
   31.6603   29.3852   33.5702 H   0  0  0  0  0  0  0  0  0  0  0  0
   31.0740   28.0592   31.5519 H   0  0  0  0  0  0  0  0  0  0  0  0
   28.8954   26.9542   31.3857 H   0  0  0  0  0  0  0  0  0  0  0  0
   26.6264   26.6231   31.2536 H   0  0  0  0  0  0  0  0  0  0  0  0
   26.3242   25.2204   32.3142 H   0  0  0  0  0  0  0  0  0  0  0  0
   31.4799   31.2763   35.4703 H   0  0  0  0  0  0  0  0  0  0  0  0
   29.8202   31.5512   34.8225 H   0  0  0  0  0  0  0  0  0  0  0  0
   28.8847   31.7642   37.0700 H   0  0  0  0  0  0  0  0  0  0  0  0
   30.2998   32.8673   36.9114 H   0  0  0  0  0  0  0  0  0  0  0  0
   30.7094   32.9490   39.3300 H   0  0  0  0  0  0  0  0  0  0  0  0
   31.6259   31.8567   41.3339 H   0  0  0  0  0  0  0  0  0  0  0  0
  1  2  1  0
  2  3  2  0
  2  4  1  0
  4  5  2  0
  5  6  1  0
  6  7  2  0
  7  8  1  0
  8  9  2  0
  9 10  1  0
 10 11  2  0
 11 12  1  0
 12 13  2  0
 13 14  1  0
  8 15  1  0
 15 16  1  0
 16 17  1  0
 17 18  1  0
 18 19  2  0
 19 20  1  0
 20 21  2  0
 21 22  1  0
 22 23  1  0
 22 24  2  0
 24 25  1  0
 25 26  2  0
 21 27  1  0
 13  4  1  0
 25 15  1  0
 12  7  1  0
 24 18  1  0
  1 28  1  0
  1 29  1  0
  9 30  1  0
 10 31  1  0
 11 32  1  0
 14 33  1  0
 14 34  1  0
 16 35  1  0
 16 36  1  0
 17 37  1  0
 17 38  1  0
 19 39  1  0
 20 40  1  0
M  END
$$$$
