confid_0
     RDKit          3D

 42 45  0  0  0  0  0  0  0  0999 V2000
   24.2000   26.2400   35.6900 N   0  0  0  0  0  0  0  0  0  0  0  0
   24.8500   26.2800   34.4800 C   0  0  0  0  0  0  0  0  0  0  0  0
   24.3100   25.7400   33.5400 O   0  0  0  0  0  0  0  0  0  0  0  0
   26.1800   26.9700   34.4700 C   0  0  0  0  0  0  0  0  0  0  0  0
   26.6500   27.6000   35.5500 N   0  0  0  0  0  0  0  0  0  0  0  0
   27.7900   28.2700   35.6200 N   0  0  0  0  0  0  0  0  0  0  0  0
   28.5400   28.3000   34.5100 C   0  0  0  0  0  0  0  0  0  0  0  0
   29.7700   28.9400   34.5600 C   0  0  0  0  0  0  0  0  0  0  0  0
   30.7000   28.8900   33.5000 C   0  0  0  0  0  0  0  0  0  0  0  0
   30.3700   28.1400   32.3700 C   0  0  0  0  0  0  0  0  0  0  0  0
   29.1200   27.5200   32.2800 C   0  0  0  0  0  0  0  0  0  0  0  0
   28.2100   27.6100   33.3300 C   0  0  0  0  0  0  0  0  0  0  0  0
   26.9700   26.9700   33.3100 C   0  0  0  0  0  0  0  0  0  0  0  0
   26.5300   26.2400   32.2200 N   0  0  0  0  0  0  0  0  0  0  0  0
   22.7747   26.1462   35.8477 C   0  0  0  0  0  0  0  0  0  0  0  0
   22.1958   25.9150   37.0502 N   0  0  0  0  0  0  0  0  0  0  0  0
   20.8404   25.9248   36.9577 C   0  0  0  0  0  0  0  0  0  0  0  0
   19.9264   25.6142   38.1040 C   0  0  0  0  0  0  0  0  0  0  0  0
   18.5609   26.3060   37.9263 C   0  0  0  0  0  0  0  0  0  0  0  0
   18.0299   26.1717   36.5167 C   0  0  0  0  0  0  0  0  0  0  0  0
   16.7842   26.1196   36.3297 O   0  0  0  0  0  0  0  0  0  0  0  0
   18.9385   26.1857   35.3948 N   0  0  0  0  0  0  0  0  0  0  0  0
   20.3435   26.1449   35.6867 C   0  0  0  0  0  0  0  0  0  0  0  0
   21.6257   26.3737   34.6207 S   0  0  0  0  0  0  0  0  0  0  0  0
   18.4486   26.3323   34.0192 C   0  0  0  0  0  0  0  0  0  0  0  0
   18.2932   27.8068   33.6660 C   0  0  0  0  0  0  0  0  0  0  0  0
   24.7627   26.2666   36.5704 H   0  0  0  0  0  0  0  0  0  0  0  0
   30.0500   29.4789   35.4574 H   0  0  0  0  0  0  0  0  0  0  0  0
   31.6575   29.3889   33.5759 H   0  0  0  0  0  0  0  0  0  0  0  0
   31.0739   28.0595   31.5517 H   0  0  0  0  0  0  0  0  0  0  0  0
   28.8953   26.9543   31.3856 H   0  0  0  0  0  0  0  0  0  0  0  0
   26.3234   25.2205   32.3142 H   0  0  0  0  0  0  0  0  0  0  0  0
   26.6263   26.6231   31.2536 H   0  0  0  0  0  0  0  0  0  0  0  0
   19.7789   24.5139   38.1507 H   0  0  0  0  0  0  0  0  0  0  0  0
   20.3896   25.9471   39.0575 H   0  0  0  0  0  0  0  0  0  0  0  0
   17.8360   25.8712   38.6481 H   0  0  0  0  0  0  0  0  0  0  0  0
   18.6679   27.3879   38.1562 H   0  0  0  0  0  0  0  0  0  0  0  0
   19.1505   25.8512   33.3047 H   0  0  0  0  0  0  0  0  0  0  0  0
   17.4702   25.8189   33.9009 H   0  0  0  0  0  0  0  0  0  0  0  0
   19.2709   28.3263   33.7506 H   0  0  0  0  0  0  0  0  0  0  0  0
   17.9247   27.9043   32.6232 H   0  0  0  0  0  0  0  0  0  0  0  0
   17.5637   28.2889   34.3507 H   0  0  0  0  0  0  0  0  0  0  0  0
  1  2  1  0
  2  3  2  0
  2  4  1  0
  4  5  2  0
  5  6  1  0
  6  7  2  0
  7  8  1  0
  8  9  2  0
  9 10  1  0
 10 11  2  0
 11 12  1  0
 12 13  2  0
 13 14  1  0
  1 15  1  0
 15 16  2  0
 16 17  1  0
 17 18  1  0
 18 19  1  0
 19 20  1  0
 20 21  2  0
 20 22  1  0
 22 23  1  0
 23 24  1  0
 22 25  1  0
 25 26  1  0
 13  4  1  0
 24 15  1  0
 12  7  1  0
 23 17  2  0
  1 27  1  0
  8 28  1  0
  9 29  1  0
 10 30  1  0
 11 31  1  0
 14 32  1  0
 14 33  1  0
 18 34  1  0
 18 35  1  0
 19 36  1  0
 19 37  1  0
 25 38  1  0
 25 39  1  0
 26 40  1  0
 26 41  1  0
 26 42  1  0
M  END
$$$$
confid_1
     RDKit          3D

 42 45  0  0  0  0  0  0  0  0999 V2000
   24.2000   26.2400   35.6900 N   0  0  0  0  0  0  0  0  0  0  0  0
   24.8500   26.2800   34.4800 C   0  0  0  0  0  0  0  0  0  0  0  0
   24.3100   25.7400   33.5400 O   0  0  0  0  0  0  0  0  0  0  0  0
   26.1800   26.9700   34.4700 C   0  0  0  0  0  0  0  0  0  0  0  0
   26.6500   27.6000   35.5500 N   0  0  0  0  0  0  0  0  0  0  0  0
   27.7900   28.2700   35.6200 N   0  0  0  0  0  0  0  0  0  0  0  0
   28.5400   28.3000   34.5100 C   0  0  0  0  0  0  0  0  0  0  0  0
   29.7700   28.9400   34.5600 C   0  0  0  0  0  0  0  0  0  0  0  0
   30.7000   28.8900   33.5000 C   0  0  0  0  0  0  0  0  0  0  0  0
   30.3700   28.1400   32.3700 C   0  0  0  0  0  0  0  0  0  0  0  0
   29.1200   27.5200   32.2800 C   0  0  0  0  0  0  0  0  0  0  0  0
   28.2100   27.6100   33.3300 C   0  0  0  0  0  0  0  0  0  0  0  0
   26.9700   26.9700   33.3100 C   0  0  0  0  0  0  0  0  0  0  0  0
   26.5300   26.2400   32.2200 N   0  0  0  0  0  0  0  0  0  0  0  0
   23.2764   25.2130   36.0870 C   0  0  0  0  0  0  0  0  0  0  0  0
   22.5092   25.3230   37.1978 N   0  0  0  0  0  0  0  0  0  0  0  0
   21.7589   24.2078   37.3958 C   0  0  0  0  0  0  0  0  0  0  0  0
   20.7335   24.0820   38.4828 C   0  0  0  0  0  0  0  0  0  0  0  0
   20.4783   22.6053   38.8413 C   0  0  0  0  0  0  0  0  0  0  0  0
   20.3480   21.7386   37.6103 C   0  0  0  0  0  0  0  0  0  0  0  0
   19.5399   20.7707   37.6165 O   0  0  0  0  0  0  0  0  0  0  0  0
   21.1925   21.9818   36.4660 N   0  0  0  0  0  0  0  0  0  0  0  0
   21.9159   23.2218   36.4381 C   0  0  0  0  0  0  0  0  0  0  0  0
   23.0523   23.7256   35.3035 S   0  0  0  0  0  0  0  0  0  0  0  0
   21.2069   21.0649   35.3203 C   0  0  0  0  0  0  0  0  0  0  0  0
   20.1600   21.4815   34.2937 C   0  0  0  0  0  0  0  0  0  0  0  0
   24.3618   27.0072   36.3809 H   0  0  0  0  0  0  0  0  0  0  0  0
   30.0498   29.4792   35.4573 H   0  0  0  0  0  0  0  0  0  0  0  0
   31.6569   29.3901   33.5753 H   0  0  0  0  0  0  0  0  0  0  0  0
   31.0715   28.0646   31.5492 H   0  0  0  0  0  0  0  0  0  0  0  0
   28.8856   26.9763   31.3746 H   0  0  0  0  0  0  0  0  0  0  0  0
   25.6751   26.5392   31.7003 H   0  0  0  0  0  0  0  0  0  0  0  0
   27.1523   25.5355   31.7658 H   0  0  0  0  0  0  0  0  0  0  0  0
   19.7865   24.5436   38.1296 H   0  0  0  0  0  0  0  0  0  0  0  0
   21.0742   24.6296   39.3875 H   0  0  0  0  0  0  0  0  0  0  0  0
   21.3281   22.2245   39.4476 H   0  0  0  0  0  0  0  0  0  0  0  0
   19.5562   22.5337   39.4578 H   0  0  0  0  0  0  0  0  0  0  0  0
   22.2108   21.0561   34.8447 H   0  0  0  0  0  0  0  0  0  0  0  0
   21.0024   20.0249   35.6551 H   0  0  0  0  0  0  0  0  0  0  0  0
   20.3741   22.5061   33.9225 H   0  0  0  0  0  0  0  0  0  0  0  0
   19.1481   21.4633   34.7507 H   0  0  0  0  0  0  0  0  0  0  0  0
   20.1785   20.7783   33.4347 H   0  0  0  0  0  0  0  0  0  0  0  0
  1  2  1  0
  2  3  2  0
  2  4  1  0
  4  5  2  0
  5  6  1  0
  6  7  2  0
  7  8  1  0
  8  9  2  0
  9 10  1  0
 10 11  2  0
 11 12  1  0
 12 13  2  0
 13 14  1  0
  1 15  1  0
 15 16  2  0
 16 17  1  0
 17 18  1  0
 18 19  1  0
 19 20  1  0
 20 21  2  0
 20 22  1  0
 22 23  1  0
 23 24  1  0
 22 25  1  0
 25 26  1  0
 13  4  1  0
 24 15  1  0
 12  7  1  0
 23 17  2  0
  1 27  1  0
  8 28  1  0
  9 29  1  0
 10 30  1  0
 11 31  1  0
 14 32  1  0
 14 33  1  0
 18 34  1  0
 18 35  1  0
 19 36  1  0
 19 37  1  0
 25 38  1  0
 25 39  1  0
 26 40  1  0
 26 41  1  0
 26 42  1  0
M  END
$$$$
confid_2
     RDKit          3D

 42 45  0  0  0  0  0  0  0  0999 V2000
   24.2000   26.2400   35.6900 N   0  0  0  0  0  0  0  0  0  0  0  0
   24.8500   26.2800   34.4800 C   0  0  0  0  0  0  0  0  0  0  0  0
   24.3100   25.7400   33.5400 O   0  0  0  0  0  0  0  0  0  0  0  0
   26.1800   26.9700   34.4700 C   0  0  0  0  0  0  0  0  0  0  0  0
   26.6500   27.6000   35.5500 N   0  0  0  0  0  0  0  0  0  0  0  0
   27.7900   28.2700   35.6200 N   0  0  0  0  0  0  0  0  0  0  0  0
   28.5400   28.3000   34.5100 C   0  0  0  0  0  0  0  0  0  0  0  0
   29.7700   28.9400   34.5600 C   0  0  0  0  0  0  0  0  0  0  0  0
   30.7000   28.8900   33.5000 C   0  0  0  0  0  0  0  0  0  0  0  0
   30.3700   28.1400   32.3700 C   0  0  0  0  0  0  0  0  0  0  0  0
   29.1200   27.5200   32.2800 C   0  0  0  0  0  0  0  0  0  0  0  0
   28.2100   27.6100   33.3300 C   0  0  0  0  0  0  0  0  0  0  0  0
   26.9700   26.9700   33.3100 C   0  0  0  0  0  0  0  0  0  0  0  0
   26.5300   26.2400   32.2200 N   0  0  0  0  0  0  0  0  0  0  0  0
   22.7751   26.1406   35.8466 C   0  0  0  0  0  0  0  0  0  0  0  0
   22.1957   25.9130   37.0495 N   0  0  0  0  0  0  0  0  0  0  0  0
   20.8407   25.9027   36.9530 C   0  0  0  0  0  0  0  0  0  0  0  0
   19.9248   25.7558   38.1301 C   0  0  0  0  0  0  0  0  0  0  0  0
   18.5686   25.1603   37.7051 C   0  0  0  0  0  0  0  0  0  0  0  0
   18.0325   25.7998   36.4438 C   0  0  0  0  0  0  0  0  0  0  0  0
   16.7857   25.8991   36.2854 O   0  0  0  0  0  0  0  0  0  0  0  0
   18.9386   26.2163   35.3999 N   0  0  0  0  0  0  0  0  0  0  0  0
   20.3437   26.1621   35.6894 C   0  0  0  0  0  0  0  0  0  0  0  0
   21.6263   26.3871   34.6231 S   0  0  0  0  0  0  0  0  0  0  0  0
   18.4475   26.5858   34.0672 C   0  0  0  0  0  0  0  0  0  0  0  0
   18.3172   25.3475   33.1881 C   0  0  0  0  0  0  0  0  0  0  0  0
   24.7623   26.2675   36.5707 H   0  0  0  0  0  0  0  0  0  0  0  0
   30.0498   29.4792   35.4573 H   0  0  0  0  0  0  0  0  0  0  0  0
   31.6569   29.3901   33.5753 H   0  0  0  0  0  0  0  0  0  0  0  0
   31.0715   28.0646   31.5492 H   0  0  0  0  0  0  0  0  0  0  0  0
   28.8856   26.9764   31.3746 H   0  0  0  0  0  0  0  0  0  0  0  0
   27.1524   25.5359   31.7653 H   0  0  0  0  0  0  0  0  0  0  0  0
   25.6750   26.5392   31.7005 H   0  0  0  0  0  0  0  0  0  0  0  0
   20.3945   25.1005   38.8946 H   0  0  0  0  0  0  0  0  0  0  0  0
   19.7624   26.7590   38.5795 H   0  0  0  0  0  0  0  0  0  0  0  0
   18.6910   24.0717   37.5183 H   0  0  0  0  0  0  0  0  0  0  0  0
   17.8396   25.2871   38.5344 H   0  0  0  0  0  0  0  0  0  0  0  0
   19.1386   27.3112   33.5870 H   0  0  0  0  0  0  0  0  0  0  0  0
   17.4598   27.0891   34.1452 H   0  0  0  0  0  0  0  0  0  0  0  0
   17.9472   25.6402   32.1830 H   0  0  0  0  0  0  0  0  0  0  0  0
   17.5987   24.6317   33.6405 H   0  0  0  0  0  0  0  0  0  0  0  0
   19.3044   24.8514   33.0761 H   0  0  0  0  0  0  0  0  0  0  0  0
  1  2  1  0
  2  3  2  0
  2  4  1  0
  4  5  2  0
  5  6  1  0
  6  7  2  0
  7  8  1  0
  8  9  2  0
  9 10  1  0
 10 11  2  0
 11 12  1  0
 12 13  2  0
 13 14  1  0
  1 15  1  0
 15 16  2  0
 16 17  1  0
 17 18  1  0
 18 19  1  0
 19 20  1  0
 20 21  2  0
 20 22  1  0
 22 23  1  0
 23 24  1  0
 22 25  1  0
 25 26  1  0
 13  4  1  0
 24 15  1  0
 12  7  1  0
 23 17  2  0
  1 27  1  0
  8 28  1  0
  9 29  1  0
 10 30  1  0
 11 31  1  0
 14 32  1  0
 14 33  1  0
 18 34  1  0
 18 35  1  0
 19 36  1  0
 19 37  1  0
 25 38  1  0
 25 39  1  0
 26 40  1  0
 26 41  1  0
 26 42  1  0
M  END
$$$$
confid_3
     RDKit          3D

 42 45  0  0  0  0  0  0  0  0999 V2000
   24.2000   26.2400   35.6900 N   0  0  0  0  0  0  0  0  0  0  0  0
   24.8500   26.2800   34.4800 C   0  0  0  0  0  0  0  0  0  0  0  0
   24.3100   25.7400   33.5400 O   0  0  0  0  0  0  0  0  0  0  0  0
   26.1800   26.9700   34.4700 C   0  0  0  0  0  0  0  0  0  0  0  0
   26.6500   27.6000   35.5500 N   0  0  0  0  0  0  0  0  0  0  0  0
   27.7900   28.2700   35.6200 N   0  0  0  0  0  0  0  0  0  0  0  0
   28.5400   28.3000   34.5100 C   0  0  0  0  0  0  0  0  0  0  0  0
   29.7700   28.9400   34.5600 C   0  0  0  0  0  0  0  0  0  0  0  0
   30.7000   28.8900   33.5000 C   0  0  0  0  0  0  0  0  0  0  0  0
   30.3700   28.1400   32.3700 C   0  0  0  0  0  0  0  0  0  0  0  0
   29.1200   27.5200   32.2800 C   0  0  0  0  0  0  0  0  0  0  0  0
   28.2100   27.6100   33.3300 C   0  0  0  0  0  0  0  0  0  0  0  0
   26.9700   26.9700   33.3100 C   0  0  0  0  0  0  0  0  0  0  0  0
   26.5300   26.2400   32.2200 N   0  0  0  0  0  0  0  0  0  0  0  0
   22.7953   25.9818   35.8462 C   0  0  0  0  0  0  0  0  0  0  0  0
   21.9209   25.8911   34.8140 N   0  0  0  0  0  0  0  0  0  0  0  0
   20.6582   25.6628   35.2591 C   0  0  0  0  0  0  0  0  0  0  0  0
   19.4597   25.5965   34.3620 C   0  0  0  0  0  0  0  0  0  0  0  0
   18.3459   24.7363   34.9897 C   0  0  0  0  0  0  0  0  0  0  0  0
   18.1395   25.0470   36.4553 C   0  0  0  0  0  0  0  0  0  0  0  0
   16.9879   24.9277   36.9542 O   0  0  0  0  0  0  0  0  0  0  0  0
   19.2656   25.3969   37.2883 N   0  0  0  0  0  0  0  0  0  0  0  0
   20.5258   25.6093   36.6343 C   0  0  0  0  0  0  0  0  0  0  0  0
   22.0364   25.8211   37.3479 S   0  0  0  0  0  0  0  0  0  0  0  0
   19.1477   25.4381   38.7506 C   0  0  0  0  0  0  0  0  0  0  0  0
   19.3890   24.0539   39.3413 C   0  0  0  0  0  0  0  0  0  0  0  0
   24.7386   26.3942   36.5720 H   0  0  0  0  0  0  0  0  0  0  0  0
   30.0498   29.4792   35.4573 H   0  0  0  0  0  0  0  0  0  0  0  0
   31.6569   29.3901   33.5753 H   0  0  0  0  0  0  0  0  0  0  0  0
   31.0715   28.0646   31.5492 H   0  0  0  0  0  0  0  0  0  0  0  0
   28.8856   26.9764   31.3746 H   0  0  0  0  0  0  0  0  0  0  0  0
   25.6751   26.5393   31.7003 H   0  0  0  0  0  0  0  0  0  0  0  0
   27.1524   25.5358   31.7654 H   0  0  0  0  0  0  0  0  0  0  0  0
   19.7481   25.1696   33.3776 H   0  0  0  0  0  0  0  0  0  0  0  0
   19.0815   26.6287   34.2000 H   0  0  0  0  0  0  0  0  0  0  0  0
   17.3999   24.9010   34.4298 H   0  0  0  0  0  0  0  0  0  0  0  0
   18.6181   23.6630   34.8964 H   0  0  0  0  0  0  0  0  0  0  0  0
   18.1379   25.7953   39.0469 H   0  0  0  0  0  0  0  0  0  0  0  0
   19.8789   26.1571   39.1782 H   0  0  0  0  0  0  0  0  0  0  0  0
   18.6385   23.3352   38.9495 H   0  0  0  0  0  0  0  0  0  0  0  0
   19.2995   24.0989   40.4470 H   0  0  0  0  0  0  0  0  0  0  0  0
   20.4072   23.6973   39.0783 H   0  0  0  0  0  0  0  0  0  0  0  0
  1  2  1  0
  2  3  2  0
  2  4  1  0
  4  5  2  0
  5  6  1  0
  6  7  2  0
  7  8  1  0
  8  9  2  0
  9 10  1  0
 10 11  2  0
 11 12  1  0
 12 13  2  0
 13 14  1  0
  1 15  1  0
 15 16  2  0
 16 17  1  0
 17 18  1  0
 18 19  1  0
 19 20  1  0
 20 21  2  0
 20 22  1  0
 22 23  1  0
 23 24  1  0
 22 25  1  0
 25 26  1  0
 13  4  1  0
 24 15  1  0
 12  7  1  0
 23 17  2  0
  1 27  1  0
  8 28  1  0
  9 29  1  0
 10 30  1  0
 11 31  1  0
 14 32  1  0
 14 33  1  0
 18 34  1  0
 18 35  1  0
 19 36  1  0
 19 37  1  0
 25 38  1  0
 25 39  1  0
 26 40  1  0
 26 41  1  0
 26 42  1  0
M  END
$$$$
confid_4
     RDKit          3D

 42 45  0  0  0  0  0  0  0  0999 V2000
   24.2000   26.2400   35.6900 N   0  0  0  0  0  0  0  0  0  0  0  0
   24.8500   26.2800   34.4800 C   0  0  0  0  0  0  0  0  0  0  0  0
   24.3100   25.7400   33.5400 O   0  0  0  0  0  0  0  0  0  0  0  0
   26.1800   26.9700   34.4700 C   0  0  0  0  0  0  0  0  0  0  0  0
   26.6500   27.6000   35.5500 N   0  0  0  0  0  0  0  0  0  0  0  0
   27.7900   28.2700   35.6200 N   0  0  0  0  0  0  0  0  0  0  0  0
   28.5400   28.3000   34.5100 C   0  0  0  0  0  0  0  0  0  0  0  0
   29.7700   28.9400   34.5600 C   0  0  0  0  0  0  0  0  0  0  0  0
   30.7000   28.8900   33.5000 C   0  0  0  0  0  0  0  0  0  0  0  0
   30.3700   28.1400   32.3700 C   0  0  0  0  0  0  0  0  0  0  0  0
   29.1200   27.5200   32.2800 C   0  0  0  0  0  0  0  0  0  0  0  0
   28.2100   27.6100   33.3300 C   0  0  0  0  0  0  0  0  0  0  0  0
   26.9700   26.9700   33.3100 C   0  0  0  0  0  0  0  0  0  0  0  0
   26.5300   26.2400   32.2200 N   0  0  0  0  0  0  0  0  0  0  0  0
   22.7955   25.9807   35.8463 C   0  0  0  0  0  0  0  0  0  0  0  0
   21.9208   25.8914   34.8143 N   0  0  0  0  0  0  0  0  0  0  0  0
   20.6576   25.6634   35.2585 C   0  0  0  0  0  0  0  0  0  0  0  0
   19.4589   25.6206   34.3586 C   0  0  0  0  0  0  0  0  0  0  0  0
   18.3122   24.8122   34.9953 C   0  0  0  0  0  0  0  0  0  0  0  0
   18.1179   25.1581   36.4534 C   0  0  0  0  0  0  0  0  0  0  0  0
   16.9543   25.1649   36.9390 O   0  0  0  0  0  0  0  0  0  0  0  0
   19.2643   25.4119   37.2922 N   0  0  0  0  0  0  0  0  0  0  0  0
   20.5258   25.6081   36.6348 C   0  0  0  0  0  0  0  0  0  0  0  0
   22.0361   25.8234   37.3477 S   0  0  0  0  0  0  0  0  0  0  0  0
   19.1228   25.5944   38.7414 C   0  0  0  0  0  0  0  0  0  0  0  0
   18.8923   27.0646   39.0715 C   0  0  0  0  0  0  0  0  0  0  0  0
   24.7385   26.3950   36.5719 H   0  0  0  0  0  0  0  0  0  0  0  0
   30.0500   29.4789   35.4574 H   0  0  0  0  0  0  0  0  0  0  0  0
   31.6575   29.3889   33.5759 H   0  0  0  0  0  0  0  0  0  0  0  0
   31.0739   28.0595   31.5517 H   0  0  0  0  0  0  0  0  0  0  0  0
   28.8953   26.9543   31.3856 H   0  0  0  0  0  0  0  0  0  0  0  0
   26.3235   25.2205   32.3142 H   0  0  0  0  0  0  0  0  0  0  0  0
   26.6264   26.6230   31.2536 H   0  0  0  0  0  0  0  0  0  0  0  0
   19.1174   26.6622   34.1759 H   0  0  0  0  0  0  0  0  0  0  0  0
   19.7361   25.1663   33.3833 H   0  0  0  0  0  0  0  0  0  0  0  0
   18.5449   23.7281   34.9219 H   0  0  0  0  0  0  0  0  0  0  0  0
   17.3743   25.0021   34.4297 H   0  0  0  0  0  0  0  0  0  0  0  0
   18.2714   24.9918   39.1253 H   0  0  0  0  0  0  0  0  0  0  0  0
   20.0325   25.2337   39.2671 H   0  0  0  0  0  0  0  0  0  0  0  0
   18.7837   27.1884   40.1694 H   0  0  0  0  0  0  0  0  0  0  0  0
   19.7536   27.6744   38.7256 H   0  0  0  0  0  0  0  0  0  0  0  0
   17.9667   27.4269   38.5762 H   0  0  0  0  0  0  0  0  0  0  0  0
  1  2  1  0
  2  3  2  0
  2  4  1  0
  4  5  2  0
  5  6  1  0
  6  7  2  0
  7  8  1  0
  8  9  2  0
  9 10  1  0
 10 11  2  0
 11 12  1  0
 12 13  2  0
 13 14  1  0
  1 15  1  0
 15 16  2  0
 16 17  1  0
 17 18  1  0
 18 19  1  0
 19 20  1  0
 20 21  2  0
 20 22  1  0
 22 23  1  0
 23 24  1  0
 22 25  1  0
 25 26  1  0
 13  4  1  0
 24 15  1  0
 12  7  1  0
 23 17  2  0
  1 27  1  0
  8 28  1  0
  9 29  1  0
 10 30  1  0
 11 31  1  0
 14 32  1  0
 14 33  1  0
 18 34  1  0
 18 35  1  0
 19 36  1  0
 19 37  1  0
 25 38  1  0
 25 39  1  0
 26 40  1  0
 26 41  1  0
 26 42  1  0
M  END
$$$$
confid_5
     RDKit          3D

 42 45  0  0  0  0  0  0  0  0999 V2000
   24.2000   26.2400   35.6900 N   0  0  0  0  0  0  0  0  0  0  0  0
   24.8500   26.2800   34.4800 C   0  0  0  0  0  0  0  0  0  0  0  0
   24.3100   25.7400   33.5400 O   0  0  0  0  0  0  0  0  0  0  0  0
   26.1800   26.9700   34.4700 C   0  0  0  0  0  0  0  0  0  0  0  0
   26.6500   27.6000   35.5500 N   0  0  0  0  0  0  0  0  0  0  0  0
   27.7900   28.2700   35.6200 N   0  0  0  0  0  0  0  0  0  0  0  0
   28.5400   28.3000   34.5100 C   0  0  0  0  0  0  0  0  0  0  0  0
   29.7700   28.9400   34.5600 C   0  0  0  0  0  0  0  0  0  0  0  0
   30.7000   28.8900   33.5000 C   0  0  0  0  0  0  0  0  0  0  0  0
   30.3700   28.1400   32.3700 C   0  0  0  0  0  0  0  0  0  0  0  0
   29.1200   27.5200   32.2800 C   0  0  0  0  0  0  0  0  0  0  0  0
   28.2100   27.6100   33.3300 C   0  0  0  0  0  0  0  0  0  0  0  0
   26.9700   26.9700   33.3100 C   0  0  0  0  0  0  0  0  0  0  0  0
   26.5300   26.2400   32.2200 N   0  0  0  0  0  0  0  0  0  0  0  0
   22.7748   26.1451   35.8478 C   0  0  0  0  0  0  0  0  0  0  0  0
   22.1963   25.9090   37.0494 N   0  0  0  0  0  0  0  0  0  0  0  0
   20.8408   25.9162   36.9581 C   0  0  0  0  0  0  0  0  0  0  0  0
   19.9319   25.5775   38.1019 C   0  0  0  0  0  0  0  0  0  0  0  0
   18.5394   26.2100   37.9145 C   0  0  0  0  0  0  0  0  0  0  0  0
   18.0284   26.0449   36.5020 C   0  0  0  0  0  0  0  0  0  0  0  0
   16.7962   25.8631   36.3059 O   0  0  0  0  0  0  0  0  0  0  0  0
   18.9388   26.1624   35.3888 N   0  0  0  0  0  0  0  0  0  0  0  0
   20.3432   26.1402   35.6867 C   0  0  0  0  0  0  0  0  0  0  0  0
   21.6255   26.3699   34.6211 S   0  0  0  0  0  0  0  0  0  0  0  0
   18.4532   26.1683   34.0039 C   0  0  0  0  0  0  0  0  0  0  0  0
   18.3967   24.7473   33.4552 C   0  0  0  0  0  0  0  0  0  0  0  0
   24.7627   26.2668   36.5704 H   0  0  0  0  0  0  0  0  0  0  0  0
   30.0500   29.4789   35.4574 H   0  0  0  0  0  0  0  0  0  0  0  0
   31.6575   29.3889   33.5759 H   0  0  0  0  0  0  0  0  0  0  0  0
   31.0739   28.0595   31.5517 H   0  0  0  0  0  0  0  0  0  0  0  0
   28.8953   26.9543   31.3856 H   0  0  0  0  0  0  0  0  0  0  0  0
   26.6263   26.6231   31.2536 H   0  0  0  0  0  0  0  0  0  0  0  0
   26.3234   25.2205   32.3142 H   0  0  0  0  0  0  0  0  0  0  0  0
   19.8295   24.4723   38.1558 H   0  0  0  0  0  0  0  0  0  0  0  0
   20.3764   25.9353   39.0552 H   0  0  0  0  0  0  0  0  0  0  0  0
   18.5985   27.2966   38.1393 H   0  0  0  0  0  0  0  0  0  0  0  0
   17.8291   25.7478   38.6338 H   0  0  0  0  0  0  0  0  0  0  0  0
   19.1173   26.7876   33.3641 H   0  0  0  0  0  0  0  0  0  0  0  0
   17.4413   26.6250   33.9512 H   0  0  0  0  0  0  0  0  0  0  0  0
   19.4094   24.2916   33.4672 H   0  0  0  0  0  0  0  0  0  0  0  0
   17.7104   24.1272   34.0698 H   0  0  0  0  0  0  0  0  0  0  0  0
   18.0245   24.7653   32.4093 H   0  0  0  0  0  0  0  0  0  0  0  0
  1  2  1  0
  2  3  2  0
  2  4  1  0
  4  5  2  0
  5  6  1  0
  6  7  2  0
  7  8  1  0
  8  9  2  0
  9 10  1  0
 10 11  2  0
 11 12  1  0
 12 13  2  0
 13 14  1  0
  1 15  1  0
 15 16  2  0
 16 17  1  0
 17 18  1  0
 18 19  1  0
 19 20  1  0
 20 21  2  0
 20 22  1  0
 22 23  1  0
 23 24  1  0
 22 25  1  0
 25 26  1  0
 13  4  1  0
 24 15  1  0
 12  7  1  0
 23 17  2  0
  1 27  1  0
  8 28  1  0
  9 29  1  0
 10 30  1  0
 11 31  1  0
 14 32  1  0
 14 33  1  0
 18 34  1  0
 18 35  1  0
 19 36  1  0
 19 37  1  0
 25 38  1  0
 25 39  1  0
 26 40  1  0
 26 41  1  0
 26 42  1  0
M  END
$$$$
confid_6
     RDKit          3D

 42 45  0  0  0  0  0  0  0  0999 V2000
   24.2000   26.2400   35.6900 N   0  0  0  0  0  0  0  0  0  0  0  0
   24.8500   26.2800   34.4800 C   0  0  0  0  0  0  0  0  0  0  0  0
   24.3100   25.7400   33.5400 O   0  0  0  0  0  0  0  0  0  0  0  0
   26.1800   26.9700   34.4700 C   0  0  0  0  0  0  0  0  0  0  0  0
   26.6500   27.6000   35.5500 N   0  0  0  0  0  0  0  0  0  0  0  0
   27.7900   28.2700   35.6200 N   0  0  0  0  0  0  0  0  0  0  0  0
   28.5400   28.3000   34.5100 C   0  0  0  0  0  0  0  0  0  0  0  0
   29.7700   28.9400   34.5600 C   0  0  0  0  0  0  0  0  0  0  0  0
   30.7000   28.8900   33.5000 C   0  0  0  0  0  0  0  0  0  0  0  0
   30.3700   28.1400   32.3700 C   0  0  0  0  0  0  0  0  0  0  0  0
   29.1200   27.5200   32.2800 C   0  0  0  0  0  0  0  0  0  0  0  0
   28.2100   27.6100   33.3300 C   0  0  0  0  0  0  0  0  0  0  0  0
   26.9700   26.9700   33.3100 C   0  0  0  0  0  0  0  0  0  0  0  0
   26.5300   26.2400   32.2200 N   0  0  0  0  0  0  0  0  0  0  0  0
   22.7953   25.9820   35.8472 C   0  0  0  0  0  0  0  0  0  0  0  0
   21.9241   25.8662   34.8150 N   0  0  0  0  0  0  0  0  0  0  0  0
   20.6588   25.6535   35.2607 C   0  0  0  0  0  0  0  0  0  0  0  0
   19.4964   25.3791   34.3540 C   0  0  0  0  0  0  0  0  0  0  0  0
   18.1622   25.7497   35.0297 C   0  0  0  0  0  0  0  0  0  0  0  0
   18.1006   25.2701   36.4614 C   0  0  0  0  0  0  0  0  0  0  0  0
   17.0021   24.8716   36.9348 O   0  0  0  0  0  0  0  0  0  0  0  0
   19.2779   25.3336   37.2933 N   0  0  0  0  0  0  0  0  0  0  0  0
   20.5311   25.5786   36.6365 C   0  0  0  0  0  0  0  0  0  0  0  0
   22.0391   25.8115   37.3489 S   0  0  0  0  0  0  0  0  0  0  0  0
   19.2154   25.0278   38.7272 C   0  0  0  0  0  0  0  0  0  0  0  0
   19.4579   23.5417   38.9642 C   0  0  0  0  0  0  0  0  0  0  0  0
   24.7383   26.3968   36.5717 H   0  0  0  0  0  0  0  0  0  0  0  0
   30.0498   29.4792   35.4573 H   0  0  0  0  0  0  0  0  0  0  0  0
   31.6569   29.3901   33.5753 H   0  0  0  0  0  0  0  0  0  0  0  0
   31.0715   28.0646   31.5492 H   0  0  0  0  0  0  0  0  0  0  0  0
   28.8856   26.9764   31.3746 H   0  0  0  0  0  0  0  0  0  0  0  0
   27.1524   25.5358   31.7654 H   0  0  0  0  0  0  0  0  0  0  0  0
   25.6751   26.5393   31.7003 H   0  0  0  0  0  0  0  0  0  0  0  0
   19.4931   24.2968   34.1022 H   0  0  0  0  0  0  0  0  0  0  0  0
   19.6085   25.9578   33.4121 H   0  0  0  0  0  0  0  0  0  0  0  0
   17.3237   25.3136   34.4447 H   0  0  0  0  0  0  0  0  0  0  0  0
   18.0458   26.8548   35.0267 H   0  0  0  0  0  0  0  0  0  0  0  0
   19.9729   25.6211   39.2824 H   0  0  0  0  0  0  0  0  0  0  0  0
   18.2227   25.3105   39.1396 H   0  0  0  0  0  0  0  0  0  0  0  0
   18.6863   22.9400   38.4389 H   0  0  0  0  0  0  0  0  0  0  0  0
   19.4044   23.3232   40.0515 H   0  0  0  0  0  0  0  0  0  0  0  0
   20.4628   23.2531   38.5898 H   0  0  0  0  0  0  0  0  0  0  0  0
  1  2  1  0
  2  3  2  0
  2  4  1  0
  4  5  2  0
  5  6  1  0
  6  7  2  0
  7  8  1  0
  8  9  2  0
  9 10  1  0
 10 11  2  0
 11 12  1  0
 12 13  2  0
 13 14  1  0
  1 15  1  0
 15 16  2  0
 16 17  1  0
 17 18  1  0
 18 19  1  0
 19 20  1  0
 20 21  2  0
 20 22  1  0
 22 23  1  0
 23 24  1  0
 22 25  1  0
 25 26  1  0
 13  4  1  0
 24 15  1  0
 12  7  1  0
 23 17  2  0
  1 27  1  0
  8 28  1  0
  9 29  1  0
 10 30  1  0
 11 31  1  0
 14 32  1  0
 14 33  1  0
 18 34  1  0
 18 35  1  0
 19 36  1  0
 19 37  1  0
 25 38  1  0
 25 39  1  0
 26 40  1  0
 26 41  1  0
 26 42  1  0
M  END
$$$$
confid_7
     RDKit          3D

 42 45  0  0  0  0  0  0  0  0999 V2000
   24.2000   26.2400   35.6900 N   0  0  0  0  0  0  0  0  0  0  0  0
   24.8500   26.2800   34.4800 C   0  0  0  0  0  0  0  0  0  0  0  0
   24.3100   25.7400   33.5400 O   0  0  0  0  0  0  0  0  0  0  0  0
   26.1800   26.9700   34.4700 C   0  0  0  0  0  0  0  0  0  0  0  0
   26.6500   27.6000   35.5500 N   0  0  0  0  0  0  0  0  0  0  0  0
   27.7900   28.2700   35.6200 N   0  0  0  0  0  0  0  0  0  0  0  0
   28.5400   28.3000   34.5100 C   0  0  0  0  0  0  0  0  0  0  0  0
   29.7700   28.9400   34.5600 C   0  0  0  0  0  0  0  0  0  0  0  0
   30.7000   28.8900   33.5000 C   0  0  0  0  0  0  0  0  0  0  0  0
   30.3700   28.1400   32.3700 C   0  0  0  0  0  0  0  0  0  0  0  0
   29.1200   27.5200   32.2800 C   0  0  0  0  0  0  0  0  0  0  0  0
   28.2100   27.6100   33.3300 C   0  0  0  0  0  0  0  0  0  0  0  0
   26.9700   26.9700   33.3100 C   0  0  0  0  0  0  0  0  0  0  0  0
   26.5300   26.2400   32.2200 N   0  0  0  0  0  0  0  0  0  0  0  0
   22.7956   25.9807   35.8473 C   0  0  0  0  0  0  0  0  0  0  0  0
   21.9239   25.8666   34.8151 N   0  0  0  0  0  0  0  0  0  0  0  0
   20.6591   25.6541   35.2621 C   0  0  0  0  0  0  0  0  0  0  0  0
   19.4895   25.4024   34.3597 C   0  0  0  0  0  0  0  0  0  0  0  0
   18.1706   25.8330   35.0304 C   0  0  0  0  0  0  0  0  0  0  0  0
   18.0869   25.3819   36.4715 C   0  0  0  0  0  0  0  0  0  0  0  0
   16.9607   25.1056   36.9662 O   0  0  0  0  0  0  0  0  0  0  0  0
   19.2749   25.3480   37.2913 N   0  0  0  0  0  0  0  0  0  0  0  0
   20.5318   25.5770   36.6366 C   0  0  0  0  0  0  0  0  0  0  0  0
   22.0390   25.8130   37.3495 S   0  0  0  0  0  0  0  0  0  0  0  0
   19.1914   25.1821   38.7470 C   0  0  0  0  0  0  0  0  0  0  0  0
   18.9948   26.5333   39.4243 C   0  0  0  0  0  0  0  0  0  0  0  0
   24.7381   26.3975   36.5717 H   0  0  0  0  0  0  0  0  0  0  0  0
   30.0500   29.4789   35.4574 H   0  0  0  0  0  0  0  0  0  0  0  0
   31.6575   29.3889   33.5759 H   0  0  0  0  0  0  0  0  0  0  0  0
   31.0739   28.0595   31.5517 H   0  0  0  0  0  0  0  0  0  0  0  0
   28.8953   26.9543   31.3856 H   0  0  0  0  0  0  0  0  0  0  0  0
   26.6264   26.6230   31.2536 H   0  0  0  0  0  0  0  0  0  0  0  0
   26.3235   25.2205   32.3142 H   0  0  0  0  0  0  0  0  0  0  0  0
   19.4483   24.3163   34.1287 H   0  0  0  0  0  0  0  0  0  0  0  0
   19.6205   25.9592   33.4072 H   0  0  0  0  0  0  0  0  0  0  0  0
   17.3164   25.4185   34.4526 H   0  0  0  0  0  0  0  0  0  0  0  0
   18.0953   26.9414   35.0078 H   0  0  0  0  0  0  0  0  0  0  0  0
   18.3468   24.5100   39.0114 H   0  0  0  0  0  0  0  0  0  0  0  0
   20.1151   24.7025   39.1360 H   0  0  0  0  0  0  0  0  0  0  0  0
   19.8477   27.2057   39.1930 H   0  0  0  0  0  0  0  0  0  0  0  0
   18.9357   26.3947   40.5243 H   0  0  0  0  0  0  0  0  0  0  0  0
   18.0531   27.0043   39.0711 H   0  0  0  0  0  0  0  0  0  0  0  0
  1  2  1  0
  2  3  2  0
  2  4  1  0
  4  5  2  0
  5  6  1  0
  6  7  2  0
  7  8  1  0
  8  9  2  0
  9 10  1  0
 10 11  2  0
 11 12  1  0
 12 13  2  0
 13 14  1  0
  1 15  1  0
 15 16  2  0
 16 17  1  0
 17 18  1  0
 18 19  1  0
 19 20  1  0
 20 21  2  0
 20 22  1  0
 22 23  1  0
 23 24  1  0
 22 25  1  0
 25 26  1  0
 13  4  1  0
 24 15  1  0
 12  7  1  0
 23 17  2  0
  1 27  1  0
  8 28  1  0
  9 29  1  0
 10 30  1  0
 11 31  1  0
 14 32  1  0
 14 33  1  0
 18 34  1  0
 18 35  1  0
 19 36  1  0
 19 37  1  0
 25 38  1  0
 25 39  1  0
 26 40  1  0
 26 41  1  0
 26 42  1  0
M  END
$$$$
