confid_0
     RDKit          3D

 54 58  0  0  0  0  0  0  0  0999 V2000
   24.6900   26.1200   35.5300 N   0  0  0  0  0  0  0  0  0  0  0  0
   25.6600   25.6700   34.6600 C   0  0  0  0  0  0  0  0  0  0  0  0
   25.2400   25.0100   33.7200 O   0  0  0  0  0  0  0  0  0  0  0  0
   27.0300   26.2200   34.8800 C   0  0  0  0  0  0  0  0  0  0  0  0
   27.3500   26.7300   36.0700 N   0  0  0  0  0  0  0  0  0  0  0  0
   28.5700   27.1800   36.3300 N   0  0  0  0  0  0  0  0  0  0  0  0
   29.5300   27.1100   35.3900 C   0  0  0  0  0  0  0  0  0  0  0  0
   30.8300   27.5700   35.6500 C   0  0  0  0  0  0  0  0  0  0  0  0
   31.8500   27.5400   34.6900 C   0  0  0  0  0  0  0  0  0  0  0  0
   31.5100   27.1200   33.4000 C   0  0  0  0  0  0  0  0  0  0  0  0
   30.2200   26.6300   33.1100 C   0  0  0  0  0  0  0  0  0  0  0  0
   29.2400   26.6600   34.1000 C   0  0  0  0  0  0  0  0  0  0  0  0
   27.9300   26.2600   33.8100 C   0  0  0  0  0  0  0  0  0  0  0  0
   27.5200   25.7100   32.6100 N   0  0  0  0  0  0  0  0  0  0  0  0
   23.5160   25.3663   35.9022 C   0  0  0  0  0  0  0  0  0  0  0  0
   23.4359   24.1165   35.5239 N   0  0  0  0  0  0  0  0  0  0  0  0
   22.4660   23.0617   35.6446 C   0  0  0  0  0  0  0  0  0  0  0  0
   21.1687   23.2455   35.8539 C   0  0  0  0  0  0  0  0  0  0  0  0
   19.9047   22.5210   35.4862 C   0  0  0  0  0  0  0  0  0  0  0  0
   19.0568   23.5704   35.8242 O   0  0  0  0  0  0  0  0  0  0  0  0
   20.1667   24.2595   36.2993 C   0  0  0  0  0  0  0  0  0  0  0  0
   20.3912   25.6148   35.6344 C   0  0  0  0  0  0  0  0  0  0  0  0
   21.3037   26.3905   36.5373 C   0  0  0  0  0  0  0  0  0  0  0  0
   22.5550   26.0346   36.8153 C   0  0  0  0  0  0  0  0  0  0  0  0
   22.9886   26.6836   38.0827 C   0  0  0  0  0  0  0  0  0  0  0  0
   21.7412   27.1237   38.7158 N   0  0  0  0  0  0  0  0  0  0  0  0
   20.7849   27.3124   37.6016 C   0  0  0  0  0  0  0  0  0  0  0  0
   20.7209   28.7718   37.0684 C   0  0  0  0  0  0  0  0  0  0  0  0
   19.7581   28.9405   35.8929 C   0  0  0  0  0  0  0  0  0  0  0  0
   21.9332   28.2573   39.6331 C   0  0  0  0  0  0  0  0  0  0  0  0
   24.8079   27.0748   35.9383 H   0  0  0  0  0  0  0  0  0  0  0  0
   31.0673   27.9415   36.6393 H   0  0  0  0  0  0  0  0  0  0  0  0
   32.8486   27.8873   34.9213 H   0  0  0  0  0  0  0  0  0  0  0  0
   32.2654   27.1208   32.6249 H   0  0  0  0  0  0  0  0  0  0  0  0
   30.0114   26.2785   32.1078 H   0  0  0  0  0  0  0  0  0  0  0  0
   27.3405   24.6833   32.5418 H   0  0  0  0  0  0  0  0  0  0  0  0
   27.6981   26.2226   31.7182 H   0  0  0  0  0  0  0  0  0  0  0  0
   22.7558   22.0962   35.2526 H   0  0  0  0  0  0  0  0  0  0  0  0
   19.8528   22.3000   34.3977 H   0  0  0  0  0  0  0  0  0  0  0  0
   19.7292   21.6261   36.1244 H   0  0  0  0  0  0  0  0  0  0  0  0
   20.1190   24.3248   37.4134 H   0  0  0  0  0  0  0  0  0  0  0  0
   19.4145   26.1352   35.5480 H   0  0  0  0  0  0  0  0  0  0  0  0
   20.8263   25.5211   34.6149 H   0  0  0  0  0  0  0  0  0  0  0  0
   23.5074   25.9491   38.7346 H   0  0  0  0  0  0  0  0  0  0  0  0
   23.6587   27.5441   37.8625 H   0  0  0  0  0  0  0  0  0  0  0  0
   19.7742   26.9902   37.9346 H   0  0  0  0  0  0  0  0  0  0  0  0
   20.3613   29.4455   37.8748 H   0  0  0  0  0  0  0  0  0  0  0  0
   21.7330   29.1110   36.7559 H   0  0  0  0  0  0  0  0  0  0  0  0
   20.1506   28.4291   34.9893 H   0  0  0  0  0  0  0  0  0  0  0  0
   18.7574   28.5332   36.1500 H   0  0  0  0  0  0  0  0  0  0  0  0
   19.6502   30.0200   35.6559 H   0  0  0  0  0  0  0  0  0  0  0  0
   20.9546   28.5770   40.0498 H   0  0  0  0  0  0  0  0  0  0  0  0
   22.5718   27.9385   40.4835 H   0  0  0  0  0  0  0  0  0  0  0  0
   22.4264   29.1178   39.1310 H   0  0  0  0  0  0  0  0  0  0  0  0
  1  2  1  0
  2  3  2  0
  2  4  1  0
  4  5  2  0
  5  6  1  0
  6  7  2  0
  7  8  1  0
  8  9  2  0
  9 10  1  0
 10 11  2  0
 11 12  1  0
 12 13  2  0
 13 14  1  0
  1 15  1  0
 15 16  2  0
 16 17  1  0
 17 18  2  0
 18 19  1  0
 19 20  1  0
 20 21  1  0
 21 22  1  0
 22 23  1  0
 23 24  2  0
 24 25  1  0
 25 26  1  0
 26 27  1  0
 27 28  1  0
 28 29  1  0
 26 30  1  0
 13  4  1  0
 24 15  1  0
 12  7  1  0
 21 18  1  0
 27 23  1  0
  1 31  1  0
  8 32  1  0
  9 33  1  0
 10 34  1  0
 11 35  1  0
 14 36  1  0
 14 37  1  0
 17 38  1  0
 19 39  1  0
 19 40  1  0
 21 41  1  0
 22 42  1  0
 22 43  1  0
 25 44  1  0
 25 45  1  0
 27 46  1  0
 28 47  1  0
 28 48  1  0
 29 49  1  0
 29 50  1  0
 29 51  1  0
 30 52  1  0
 30 53  1  0
 30 54  1  0
M  END
$$$$
