confid_0
     RDKit          3D

 45 48  0  0  0  0  0  0  0  0999 V2000
   24.4800   26.1000   36.1300 N   0  0  0  0  0  0  0  0  0  0  0  0
   25.2500   26.2500   34.9900 C   0  0  0  0  0  0  0  0  0  0  0  0
   24.7400   25.7600   33.9900 O   0  0  0  0  0  0  0  0  0  0  0  0
   26.5900   26.8900   34.9600 C   0  0  0  0  0  0  0  0  0  0  0  0
   27.0600   27.2400   36.1600 N   0  0  0  0  0  0  0  0  0  0  0  0
   28.3000   27.7100   36.2400 N   0  0  0  0  0  0  0  0  0  0  0  0
   29.0500   27.9600   35.1500 C   0  0  0  0  0  0  0  0  0  0  0  0
   30.3400   28.4900   35.2600 C   0  0  0  0  0  0  0  0  0  0  0  0
   31.1100   28.8200   34.1400 C   0  0  0  0  0  0  0  0  0  0  0  0
   30.5200   28.6700   32.8800 C   0  0  0  0  0  0  0  0  0  0  0  0
   29.2900   28.0200   32.7700 C   0  0  0  0  0  0  0  0  0  0  0  0
   28.5200   27.7100   33.8900 C   0  0  0  0  0  0  0  0  0  0  0  0
   27.2700   27.0800   33.7600 C   0  0  0  0  0  0  0  0  0  0  0  0
   26.7500   26.8800   32.4900 N   0  0  0  0  0  0  0  0  0  0  0  0
   23.4816   25.0747   36.3155 C   0  0  0  0  0  0  0  0  0  0  0  0
   23.5818   23.9045   35.6126 N   0  0  0  0  0  0  0  0  0  0  0  0
   22.6979   22.8827   35.7598 C   0  0  0  0  0  0  0  0  0  0  0  0
   21.6794   23.0091   36.6935 C   0  0  0  0  0  0  0  0  0  0  0  0
   20.5988   22.0293   36.9895 C   0  0  0  0  0  0  0  0  0  0  0  0
   19.8769   22.7709   38.0652 C   0  0  0  0  0  0  0  0  0  0  0  0
   18.8759   22.3083   38.6744 O   0  0  0  0  0  0  0  0  0  0  0  0
   20.4628   24.0387   38.3778 N   0  0  0  0  0  0  0  0  0  0  0  0
   21.5648   24.1467   37.4679 C   0  0  0  0  0  0  0  0  0  0  0  0
   22.4187   25.2510   37.2443 C   0  0  0  0  0  0  0  0  0  0  0  0
   22.1820   26.5906   37.8904 C   0  0  0  0  0  0  0  0  0  0  0  0
   20.3830   24.6105   39.7262 C   0  0  0  0  0  0  0  0  0  0  0  0
   19.0920   25.4042   39.8926 C   0  0  0  0  0  0  0  0  0  0  0  0
   24.6823   26.7345   36.9345 H   0  0  0  0  0  0  0  0  0  0  0  0
   30.7580   28.6629   36.2441 H   0  0  0  0  0  0  0  0  0  0  0  0
   32.0983   29.2479   34.2470 H   0  0  0  0  0  0  0  0  0  0  0  0
   31.0669   28.9543   31.9901 H   0  0  0  0  0  0  0  0  0  0  0  0
   28.9258   27.8587   31.7656 H   0  0  0  0  0  0  0  0  0  0  0  0
   27.2969   26.3787   31.7554 H   0  0  0  0  0  0  0  0  0  0  0  0
   25.7673   27.1503   32.2658 H   0  0  0  0  0  0  0  0  0  0  0  0
   22.7979   21.9847   35.1648 H   0  0  0  0  0  0  0  0  0  0  0  0
   19.9457   21.8740   36.1050 H   0  0  0  0  0  0  0  0  0  0  0  0
   21.0188   21.0762   37.3746 H   0  0  0  0  0  0  0  0  0  0  0  0
   22.7852   26.6760   38.8179 H   0  0  0  0  0  0  0  0  0  0  0  0
   21.1084   26.7398   38.1152 H   0  0  0  0  0  0  0  0  0  0  0  0
   22.4602   27.4148   37.2008 H   0  0  0  0  0  0  0  0  0  0  0  0
   20.4075   23.7934   40.4799 H   0  0  0  0  0  0  0  0  0  0  0  0
   21.2534   25.2575   39.9441 H   0  0  0  0  0  0  0  0  0  0  0  0
   19.0649   25.8640   40.9028 H   0  0  0  0  0  0  0  0  0  0  0  0
   18.2127   24.7353   39.7830 H   0  0  0  0  0  0  0  0  0  0  0  0
   19.0291   26.2087   39.1310 H   0  0  0  0  0  0  0  0  0  0  0  0
  1  2  1  0
  2  3  2  0
  2  4  1  0
  4  5  2  0
  5  6  1  0
  6  7  2  0
  7  8  1  0
  8  9  2  0
  9 10  1  0
 10 11  2  0
 11 12  1  0
 12 13  2  0
 13 14  1  0
  1 15  1  0
 15 16  2  0
 16 17  1  0
 17 18  2  0
 18 19  1  0
 19 20  1  0
 20 21  2  0
 20 22  1  0
 22 23  1  0
 23 24  2  0
 24 25  1  0
 22 26  1  0
 26 27  1  0
 13  4  1  0
 24 15  1  0
 12  7  1  0
 23 18  1  0
  1 28  1  0
  8 29  1  0
  9 30  1  0
 10 31  1  0
 11 32  1  0
 14 33  1  0
 14 34  1  0
 17 35  1  0
 19 36  1  0
 19 37  1  0
 25 38  1  0
 25 39  1  0
 25 40  1  0
 26 41  1  0
 26 42  1  0
 27 43  1  0
 27 44  1  0
 27 45  1  0
M  END
$$$$
confid_1
     RDKit          3D

 45 48  0  0  0  0  0  0  0  0999 V2000
   24.4800   26.1000   36.1300 N   0  0  0  0  0  0  0  0  0  0  0  0
   25.2500   26.2500   34.9900 C   0  0  0  0  0  0  0  0  0  0  0  0
   24.7400   25.7600   33.9900 O   0  0  0  0  0  0  0  0  0  0  0  0
   26.5900   26.8900   34.9600 C   0  0  0  0  0  0  0  0  0  0  0  0
   27.0600   27.2400   36.1600 N   0  0  0  0  0  0  0  0  0  0  0  0
   28.3000   27.7100   36.2400 N   0  0  0  0  0  0  0  0  0  0  0  0
   29.0500   27.9600   35.1500 C   0  0  0  0  0  0  0  0  0  0  0  0
   30.3400   28.4900   35.2600 C   0  0  0  0  0  0  0  0  0  0  0  0
   31.1100   28.8200   34.1400 C   0  0  0  0  0  0  0  0  0  0  0  0
   30.5200   28.6700   32.8800 C   0  0  0  0  0  0  0  0  0  0  0  0
   29.2900   28.0200   32.7700 C   0  0  0  0  0  0  0  0  0  0  0  0
   28.5200   27.7100   33.8900 C   0  0  0  0  0  0  0  0  0  0  0  0
   27.2700   27.0800   33.7600 C   0  0  0  0  0  0  0  0  0  0  0  0
   26.7500   26.8800   32.4900 N   0  0  0  0  0  0  0  0  0  0  0  0
   23.0455   25.9434   36.1288 C   0  0  0  0  0  0  0  0  0  0  0  0
   22.3190   26.4189   35.0707 N   0  0  0  0  0  0  0  0  0  0  0  0
   20.9637   26.3355   35.0152 C   0  0  0  0  0  0  0  0  0  0  0  0
   20.2828   25.7894   36.0939 C   0  0  0  0  0  0  0  0  0  0  0  0
   18.8149   25.5806   36.2233 C   0  0  0  0  0  0  0  0  0  0  0  0
   18.7676   24.9789   37.5886 C   0  0  0  0  0  0  0  0  0  0  0  0
   17.6960   24.6564   38.1673 O   0  0  0  0  0  0  0  0  0  0  0  0
   20.0543   24.8515   38.2022 N   0  0  0  0  0  0  0  0  0  0  0  0
   20.9634   25.3438   37.2097 C   0  0  0  0  0  0  0  0  0  0  0  0
   22.3770   25.3339   37.2266 C   0  0  0  0  0  0  0  0  0  0  0  0
   23.1605   24.6416   38.3105 C   0  0  0  0  0  0  0  0  0  0  0  0
   20.2225   24.9288   39.6573 C   0  0  0  0  0  0  0  0  0  0  0  0
   20.0191   23.5571   40.2907 C   0  0  0  0  0  0  0  0  0  0  0  0
   24.9586   26.1801   37.0546 H   0  0  0  0  0  0  0  0  0  0  0  0
   30.7580   28.6629   36.2441 H   0  0  0  0  0  0  0  0  0  0  0  0
   32.0983   29.2479   34.2470 H   0  0  0  0  0  0  0  0  0  0  0  0
   31.0669   28.9543   31.9901 H   0  0  0  0  0  0  0  0  0  0  0  0
   28.9258   27.8587   31.7656 H   0  0  0  0  0  0  0  0  0  0  0  0
   25.7672   27.1502   32.2659 H   0  0  0  0  0  0  0  0  0  0  0  0
   27.2969   26.3788   31.7553 H   0  0  0  0  0  0  0  0  0  0  0  0
   20.4296   26.7000   34.1479 H   0  0  0  0  0  0  0  0  0  0  0  0
   18.4431   24.8657   35.4594 H   0  0  0  0  0  0  0  0  0  0  0  0
   18.2701   26.5478   36.1944 H   0  0  0  0  0  0  0  0  0  0  0  0
   23.4410   25.3698   39.0996 H   0  0  0  0  0  0  0  0  0  0  0  0
   24.0830   24.1826   37.8974 H   0  0  0  0  0  0  0  0  0  0  0  0
   22.5817   23.8053   38.7477 H   0  0  0  0  0  0  0  0  0  0  0  0
   19.4799   25.6393   40.0815 H   0  0  0  0  0  0  0  0  0  0  0  0
   21.2188   25.3250   39.9294 H   0  0  0  0  0  0  0  0  0  0  0  0
   20.7300   22.8211   39.8614 H   0  0  0  0  0  0  0  0  0  0  0  0
   20.1896   23.6233   41.3858 H   0  0  0  0  0  0  0  0  0  0  0  0
   18.9824   23.2017   40.1133 H   0  0  0  0  0  0  0  0  0  0  0  0
  1  2  1  0
  2  3  2  0
  2  4  1  0
  4  5  2  0
  5  6  1  0
  6  7  2  0
  7  8  1  0
  8  9  2  0
  9 10  1  0
 10 11  2  0
 11 12  1  0
 12 13  2  0
 13 14  1  0
  1 15  1  0
 15 16  2  0
 16 17  1  0
 17 18  2  0
 18 19  1  0
 19 20  1  0
 20 21  2  0
 20 22  1  0
 22 23  1  0
 23 24  2  0
 24 25  1  0
 22 26  1  0
 26 27  1  0
 13  4  1  0
 24 15  1  0
 12  7  1  0
 23 18  1  0
  1 28  1  0
  8 29  1  0
  9 30  1  0
 10 31  1  0
 11 32  1  0
 14 33  1  0
 14 34  1  0
 17 35  1  0
 19 36  1  0
 19 37  1  0
 25 38  1  0
 25 39  1  0
 25 40  1  0
 26 41  1  0
 26 42  1  0
 27 43  1  0
 27 44  1  0
 27 45  1  0
M  END
$$$$
