confid_0
     RDKit          3D

 47 50  0  0  0  0  0  0  0  0999 V2000
   24.4800   26.1000   36.1300 N   0  0  0  0  0  0  0  0  0  0  0  0
   25.2500   26.2500   34.9900 C   0  0  0  0  0  0  0  0  0  0  0  0
   24.7400   25.7600   33.9900 O   0  0  0  0  0  0  0  0  0  0  0  0
   26.5900   26.8900   34.9600 C   0  0  0  0  0  0  0  0  0  0  0  0
   27.0600   27.2400   36.1600 N   0  0  0  0  0  0  0  0  0  0  0  0
   28.3000   27.7100   36.2400 N   0  0  0  0  0  0  0  0  0  0  0  0
   29.0500   27.9600   35.1500 C   0  0  0  0  0  0  0  0  0  0  0  0
   30.3400   28.4900   35.2600 C   0  0  0  0  0  0  0  0  0  0  0  0
   31.1100   28.8200   34.1400 C   0  0  0  0  0  0  0  0  0  0  0  0
   30.5200   28.6700   32.8800 C   0  0  0  0  0  0  0  0  0  0  0  0
   29.2900   28.0200   32.7700 C   0  0  0  0  0  0  0  0  0  0  0  0
   28.5200   27.7100   33.8900 C   0  0  0  0  0  0  0  0  0  0  0  0
   27.2700   27.0800   33.7600 C   0  0  0  0  0  0  0  0  0  0  0  0
   26.7500   26.8800   32.4900 N   0  0  0  0  0  0  0  0  0  0  0  0
   23.4300   25.1286   36.2770 C   0  0  0  0  0  0  0  0  0  0  0  0
   22.3130   25.4960   36.8562 N   0  0  0  0  0  0  0  0  0  0  0  0
   21.1813   24.6195   37.0261 C   0  0  0  0  0  0  0  0  0  0  0  0
   21.2393   23.3906   36.5257 C   0  0  0  0  0  0  0  0  0  0  0  0
   20.1945   22.3315   36.4764 C   0  0  0  0  0  0  0  0  0  0  0  0
   20.8640   21.2889   35.6965 N   0  0  0  0  0  0  0  0  0  0  0  0
   20.2410   20.0229   35.3151 C   0  0  0  0  0  0  0  0  0  0  0  0
   19.8109   20.0591   33.8531 C   0  0  0  0  0  0  0  0  0  0  0  0
   22.1900   21.7230   35.3584 C   0  0  0  0  0  0  0  0  0  0  0  0
   23.0777   20.9709   34.5250 N   0  0  0  0  0  0  0  0  0  0  0  0
   22.4234   22.9350   35.8525 C   0  0  0  0  0  0  0  0  0  0  0  0
   23.6054   23.7563   35.8256 N   0  0  0  0  0  0  0  0  0  0  0  0
   24.9464   23.1761   35.6989 C   0  0  0  0  0  0  0  0  0  0  0  0
   24.5893   26.8066   36.8919 H   0  0  0  0  0  0  0  0  0  0  0  0
   30.7582   28.6623   36.2441 H   0  0  0  0  0  0  0  0  0  0  0  0
   32.0994   29.2455   34.2469 H   0  0  0  0  0  0  0  0  0  0  0  0
   31.0716   28.9442   31.9898 H   0  0  0  0  0  0  0  0  0  0  0  0
   28.9437   27.8128   31.7669 H   0  0  0  0  0  0  0  0  0  0  0  0
   26.3614   25.9528   32.2113 H   0  0  0  0  0  0  0  0  0  0  0  0
   26.7157   27.6565   31.7925 H   0  0  0  0  0  0  0  0  0  0  0  0
   20.2843   24.9765   37.5144 H   0  0  0  0  0  0  0  0  0  0  0  0
   19.2885   22.6932   35.9449 H   0  0  0  0  0  0  0  0  0  0  0  0
   19.9544   21.9633   37.4964 H   0  0  0  0  0  0  0  0  0  0  0  0
   19.3432   19.8439   35.9456 H   0  0  0  0  0  0  0  0  0  0  0  0
   20.9485   19.1847   35.4889 H   0  0  0  0  0  0  0  0  0  0  0  0
   19.3251   19.0978   33.5839 H   0  0  0  0  0  0  0  0  0  0  0  0
   20.6876   20.2127   33.1905 H   0  0  0  0  0  0  0  0  0  0  0  0
   19.0856   20.8847   33.6916 H   0  0  0  0  0  0  0  0  0  0  0  0
   22.8738   19.9734   34.2991 H   0  0  0  0  0  0  0  0  0  0  0  0
   23.8783   21.4201   34.0328 H   0  0  0  0  0  0  0  0  0  0  0  0
   25.6809   23.7444   36.3077 H   0  0  0  0  0  0  0  0  0  0  0  0
   25.2691   23.1959   34.6378 H   0  0  0  0  0  0  0  0  0  0  0  0
   24.9595   22.1331   36.0792 H   0  0  0  0  0  0  0  0  0  0  0  0
  1  2  1  0
  2  3  2  0
  2  4  1  0
  4  5  2  0
  5  6  1  0
  6  7  2  0
  7  8  1  0
  8  9  2  0
  9 10  1  0
 10 11  2  0
 11 12  1  0
 12 13  2  0
 13 14  1  0
  1 15  1  0
 15 16  2  0
 16 17  1  0
 17 18  2  0
 18 19  1  0
 19 20  1  0
 20 21  1  0
 21 22  1  0
 20 23  1  0
 23 24  1  0
 23 25  2  0
 25 26  1  0
 26 27  1  0
 13  4  1  0
 26 15  1  0
 12  7  1  0
 25 18  1  0
  1 28  1  0
  8 29  1  0
  9 30  1  0
 10 31  1  0
 11 32  1  0
 14 33  1  0
 14 34  1  0
 17 35  1  0
 19 36  1  0
 19 37  1  0
 21 38  1  0
 21 39  1  0
 22 40  1  0
 22 41  1  0
 22 42  1  0
 24 43  1  0
 24 44  1  0
 27 45  1  0
 27 46  1  0
 27 47  1  0
M  END
$$$$
confid_1
     RDKit          3D

 47 50  0  0  0  0  0  0  0  0999 V2000
   24.4800   26.1000   36.1300 N   0  0  0  0  0  0  0  0  0  0  0  0
   25.2500   26.2500   34.9900 C   0  0  0  0  0  0  0  0  0  0  0  0
   24.7400   25.7600   33.9900 O   0  0  0  0  0  0  0  0  0  0  0  0
   26.5900   26.8900   34.9600 C   0  0  0  0  0  0  0  0  0  0  0  0
   27.0600   27.2400   36.1600 N   0  0  0  0  0  0  0  0  0  0  0  0
   28.3000   27.7100   36.2400 N   0  0  0  0  0  0  0  0  0  0  0  0
   29.0500   27.9600   35.1500 C   0  0  0  0  0  0  0  0  0  0  0  0
   30.3400   28.4900   35.2600 C   0  0  0  0  0  0  0  0  0  0  0  0
   31.1100   28.8200   34.1400 C   0  0  0  0  0  0  0  0  0  0  0  0
   30.5200   28.6700   32.8800 C   0  0  0  0  0  0  0  0  0  0  0  0
   29.2900   28.0200   32.7700 C   0  0  0  0  0  0  0  0  0  0  0  0
   28.5200   27.7100   33.8900 C   0  0  0  0  0  0  0  0  0  0  0  0
   27.2700   27.0800   33.7600 C   0  0  0  0  0  0  0  0  0  0  0  0
   26.7500   26.8800   32.4900 N   0  0  0  0  0  0  0  0  0  0  0  0
   23.0602   25.8715   36.1209 C   0  0  0  0  0  0  0  0  0  0  0  0
   22.5591   25.0091   36.9714 N   0  0  0  0  0  0  0  0  0  0  0  0
   21.1587   24.6719   37.0278 C   0  0  0  0  0  0  0  0  0  0  0  0
   20.3311   25.2130   36.1412 C   0  0  0  0  0  0  0  0  0  0  0  0
   18.8805   24.9656   35.9166 C   0  0  0  0  0  0  0  0  0  0  0  0
   18.6200   25.7802   34.7283 N   0  0  0  0  0  0  0  0  0  0  0  0
   17.3254   25.8563   34.0541 C   0  0  0  0  0  0  0  0  0  0  0  0
   17.3331   25.0087   32.7870 C   0  0  0  0  0  0  0  0  0  0  0  0
   19.8270   26.4506   34.3353 C   0  0  0  0  0  0  0  0  0  0  0  0
   19.9340   27.2570   33.1577 N   0  0  0  0  0  0  0  0  0  0  0  0
   20.8214   26.1422   35.1620 C   0  0  0  0  0  0  0  0  0  0  0  0
   22.1860   26.5979   35.2118 N   0  0  0  0  0  0  0  0  0  0  0  0
   22.5840   27.9026   34.6733 C   0  0  0  0  0  0  0  0  0  0  0  0
   24.9670   26.0436   37.0526 H   0  0  0  0  0  0  0  0  0  0  0  0
   30.7582   28.6623   36.2441 H   0  0  0  0  0  0  0  0  0  0  0  0
   32.0994   29.2455   34.2469 H   0  0  0  0  0  0  0  0  0  0  0  0
   31.0715   28.9443   31.9898 H   0  0  0  0  0  0  0  0  0  0  0  0
   28.9436   27.8130   31.7670 H   0  0  0  0  0  0  0  0  0  0  0  0
   26.7146   27.6571   31.7931 H   0  0  0  0  0  0  0  0  0  0  0  0
   26.3605   25.9533   32.2112 H   0  0  0  0  0  0  0  0  0  0  0  0
   20.8002   23.9536   37.7531 H   0  0  0  0  0  0  0  0  0  0  0  0
   18.2786   25.3265   36.7775 H   0  0  0  0  0  0  0  0  0  0  0  0
   18.6902   23.8924   35.7017 H   0  0  0  0  0  0  0  0  0  0  0  0
   16.5293   25.4769   34.7309 H   0  0  0  0  0  0  0  0  0  0  0  0
   17.0864   26.9131   33.8104 H   0  0  0  0  0  0  0  0  0  0  0  0
   18.1020   25.3746   32.0756 H   0  0  0  0  0  0  0  0  0  0  0  0
   16.3388   25.0637   32.2961 H   0  0  0  0  0  0  0  0  0  0  0  0
   17.5492   23.9493   33.0409 H   0  0  0  0  0  0  0  0  0  0  0  0
   19.0784   27.5624   32.6457 H   0  0  0  0  0  0  0  0  0  0  0  0
   20.8555   27.4635   32.7181 H   0  0  0  0  0  0  0  0  0  0  0  0
   21.7234   28.6041   34.6690 H   0  0  0  0  0  0  0  0  0  0  0  0
   22.9796   27.7831   33.6439 H   0  0  0  0  0  0  0  0  0  0  0  0
   23.3681   28.3679   35.3073 H   0  0  0  0  0  0  0  0  0  0  0  0
  1  2  1  0
  2  3  2  0
  2  4  1  0
  4  5  2  0
  5  6  1  0
  6  7  2  0
  7  8  1  0
  8  9  2  0
  9 10  1  0
 10 11  2  0
 11 12  1  0
 12 13  2  0
 13 14  1  0
  1 15  1  0
 15 16  2  0
 16 17  1  0
 17 18  2  0
 18 19  1  0
 19 20  1  0
 20 21  1  0
 21 22  1  0
 20 23  1  0
 23 24  1  0
 23 25  2  0
 25 26  1  0
 26 27  1  0
 13  4  1  0
 26 15  1  0
 12  7  1  0
 25 18  1  0
  1 28  1  0
  8 29  1  0
  9 30  1  0
 10 31  1  0
 11 32  1  0
 14 33  1  0
 14 34  1  0
 17 35  1  0
 19 36  1  0
 19 37  1  0
 21 38  1  0
 21 39  1  0
 22 40  1  0
 22 41  1  0
 22 42  1  0
 24 43  1  0
 24 44  1  0
 27 45  1  0
 27 46  1  0
 27 47  1  0
M  END
$$$$
confid_2
     RDKit          3D

 47 50  0  0  0  0  0  0  0  0999 V2000
   24.4800   26.1000   36.1300 N   0  0  0  0  0  0  0  0  0  0  0  0
   25.2500   26.2500   34.9900 C   0  0  0  0  0  0  0  0  0  0  0  0
   24.7400   25.7600   33.9900 O   0  0  0  0  0  0  0  0  0  0  0  0
   26.5900   26.8900   34.9600 C   0  0  0  0  0  0  0  0  0  0  0  0
   27.0600   27.2400   36.1600 N   0  0  0  0  0  0  0  0  0  0  0  0
   28.3000   27.7100   36.2400 N   0  0  0  0  0  0  0  0  0  0  0  0
   29.0500   27.9600   35.1500 C   0  0  0  0  0  0  0  0  0  0  0  0
   30.3400   28.4900   35.2600 C   0  0  0  0  0  0  0  0  0  0  0  0
   31.1100   28.8200   34.1400 C   0  0  0  0  0  0  0  0  0  0  0  0
   30.5200   28.6700   32.8800 C   0  0  0  0  0  0  0  0  0  0  0  0
   29.2900   28.0200   32.7700 C   0  0  0  0  0  0  0  0  0  0  0  0
   28.5200   27.7100   33.8900 C   0  0  0  0  0  0  0  0  0  0  0  0
   27.2700   27.0800   33.7600 C   0  0  0  0  0  0  0  0  0  0  0  0
   26.7500   26.8800   32.4900 N   0  0  0  0  0  0  0  0  0  0  0  0
   23.0595   25.8767   36.1207 C   0  0  0  0  0  0  0  0  0  0  0  0
   22.5554   25.0138   36.9689 N   0  0  0  0  0  0  0  0  0  0  0  0
   21.1537   24.6825   37.0263 C   0  0  0  0  0  0  0  0  0  0  0  0
   20.3254   25.2374   36.1488 C   0  0  0  0  0  0  0  0  0  0  0  0
   18.8794   24.9781   35.9090 C   0  0  0  0  0  0  0  0  0  0  0  0
   18.6184   25.8101   34.7329 N   0  0  0  0  0  0  0  0  0  0  0  0
   17.3239   25.8955   34.0596 C   0  0  0  0  0  0  0  0  0  0  0  0
   16.6531   27.2299   34.3646 C   0  0  0  0  0  0  0  0  0  0  0  0
   19.8293   26.4733   34.3391 C   0  0  0  0  0  0  0  0  0  0  0  0
   19.9590   27.2238   33.1268 N   0  0  0  0  0  0  0  0  0  0  0  0
   20.8179   26.1705   35.1746 C   0  0  0  0  0  0  0  0  0  0  0  0
   22.1877   26.6103   35.2152 N   0  0  0  0  0  0  0  0  0  0  0  0
   22.5925   27.9148   34.6808 C   0  0  0  0  0  0  0  0  0  0  0  0
   24.9671   26.0405   37.0524 H   0  0  0  0  0  0  0  0  0  0  0  0
   30.7582   28.6623   36.2441 H   0  0  0  0  0  0  0  0  0  0  0  0
   32.0994   29.2455   34.2469 H   0  0  0  0  0  0  0  0  0  0  0  0
   31.0715   28.9443   31.9898 H   0  0  0  0  0  0  0  0  0  0  0  0
   28.9436   27.8130   31.7670 H   0  0  0  0  0  0  0  0  0  0  0  0
   26.7146   27.6571   31.7932 H   0  0  0  0  0  0  0  0  0  0  0  0
   26.3605   25.9533   32.2112 H   0  0  0  0  0  0  0  0  0  0  0  0
   20.7953   23.9539   37.7413 H   0  0  0  0  0  0  0  0  0  0  0  0
   18.2666   25.3172   36.7710 H   0  0  0  0  0  0  0  0  0  0  0  0
   18.7033   23.9066   35.6744 H   0  0  0  0  0  0  0  0  0  0  0  0
   16.6622   25.0761   34.4150 H   0  0  0  0  0  0  0  0  0  0  0  0
   17.4570   25.7716   32.9640 H   0  0  0  0  0  0  0  0  0  0  0  0
   17.2795   28.0738   34.0086 H   0  0  0  0  0  0  0  0  0  0  0  0
   16.4954   27.3329   35.4592 H   0  0  0  0  0  0  0  0  0  0  0  0
   15.6679   27.2769   33.8547 H   0  0  0  0  0  0  0  0  0  0  0  0
   19.1193   27.4536   32.5530 H   0  0  0  0  0  0  0  0  0  0  0  0
   20.8904   27.4434   32.7158 H   0  0  0  0  0  0  0  0  0  0  0  0
   23.0066   27.7939   33.6588 H   0  0  0  0  0  0  0  0  0  0  0  0
   23.3639   28.3825   35.3284 H   0  0  0  0  0  0  0  0  0  0  0  0
   21.7306   28.6145   34.6575 H   0  0  0  0  0  0  0  0  0  0  0  0
  1  2  1  0
  2  3  2  0
  2  4  1  0
  4  5  2  0
  5  6  1  0
  6  7  2  0
  7  8  1  0
  8  9  2  0
  9 10  1  0
 10 11  2  0
 11 12  1  0
 12 13  2  0
 13 14  1  0
  1 15  1  0
 15 16  2  0
 16 17  1  0
 17 18  2  0
 18 19  1  0
 19 20  1  0
 20 21  1  0
 21 22  1  0
 20 23  1  0
 23 24  1  0
 23 25  2  0
 25 26  1  0
 26 27  1  0
 13  4  1  0
 26 15  1  0
 12  7  1  0
 25 18  1  0
  1 28  1  0
  8 29  1  0
  9 30  1  0
 10 31  1  0
 11 32  1  0
 14 33  1  0
 14 34  1  0
 17 35  1  0
 19 36  1  0
 19 37  1  0
 21 38  1  0
 21 39  1  0
 22 40  1  0
 22 41  1  0
 22 42  1  0
 24 43  1  0
 24 44  1  0
 27 45  1  0
 27 46  1  0
 27 47  1  0
M  END
$$$$
confid_3
     RDKit          3D

 47 50  0  0  0  0  0  0  0  0999 V2000
   24.4800   26.1000   36.1300 N   0  0  0  0  0  0  0  0  0  0  0  0
   25.2500   26.2500   34.9900 C   0  0  0  0  0  0  0  0  0  0  0  0
   24.7400   25.7600   33.9900 O   0  0  0  0  0  0  0  0  0  0  0  0
   26.5900   26.8900   34.9600 C   0  0  0  0  0  0  0  0  0  0  0  0
   27.0600   27.2400   36.1600 N   0  0  0  0  0  0  0  0  0  0  0  0
   28.3000   27.7100   36.2400 N   0  0  0  0  0  0  0  0  0  0  0  0
   29.0500   27.9600   35.1500 C   0  0  0  0  0  0  0  0  0  0  0  0
   30.3400   28.4900   35.2600 C   0  0  0  0  0  0  0  0  0  0  0  0
   31.1100   28.8200   34.1400 C   0  0  0  0  0  0  0  0  0  0  0  0
   30.5200   28.6700   32.8800 C   0  0  0  0  0  0  0  0  0  0  0  0
   29.2900   28.0200   32.7700 C   0  0  0  0  0  0  0  0  0  0  0  0
   28.5200   27.7100   33.8900 C   0  0  0  0  0  0  0  0  0  0  0  0
   27.2700   27.0800   33.7600 C   0  0  0  0  0  0  0  0  0  0  0  0
   26.7500   26.8800   32.4900 N   0  0  0  0  0  0  0  0  0  0  0  0
   23.4304   25.1282   36.2772 C   0  0  0  0  0  0  0  0  0  0  0  0
   22.3120   25.4962   36.8532 N   0  0  0  0  0  0  0  0  0  0  0  0
   21.1813   24.6188   37.0251 C   0  0  0  0  0  0  0  0  0  0  0  0
   21.2452   23.3846   36.5384 C   0  0  0  0  0  0  0  0  0  0  0  0
   20.1938   22.3333   36.4686 C   0  0  0  0  0  0  0  0  0  0  0  0
   20.8721   21.2835   35.7062 N   0  0  0  0  0  0  0  0  0  0  0  0
   20.2527   20.0151   35.3271 C   0  0  0  0  0  0  0  0  0  0  0  0
   20.8082   18.8775   36.1761 C   0  0  0  0  0  0  0  0  0  0  0  0
   22.1967   21.7205   35.3661 C   0  0  0  0  0  0  0  0  0  0  0  0
   23.0601   21.0025   34.4781 N   0  0  0  0  0  0  0  0  0  0  0  0
   22.4322   22.9270   35.8719 C   0  0  0  0  0  0  0  0  0  0  0  0
   23.6091   23.7544   35.8315 N   0  0  0  0  0  0  0  0  0  0  0  0
   24.9519   23.1775   35.7088 C   0  0  0  0  0  0  0  0  0  0  0  0
   24.5880   26.8078   36.8910 H   0  0  0  0  0  0  0  0  0  0  0  0
   30.7582   28.6623   36.2441 H   0  0  0  0  0  0  0  0  0  0  0  0
   32.0994   29.2454   34.2469 H   0  0  0  0  0  0  0  0  0  0  0  0
   31.0716   28.9442   31.9898 H   0  0  0  0  0  0  0  0  0  0  0  0
   28.9438   27.8129   31.7669 H   0  0  0  0  0  0  0  0  0  0  0  0
   26.3615   25.9528   32.2113 H   0  0  0  0  0  0  0  0  0  0  0  0
   26.7157   27.6565   31.7925 H   0  0  0  0  0  0  0  0  0  0  0  0
   20.2787   24.9805   37.4993 H   0  0  0  0  0  0  0  0  0  0  0  0
   19.9283   21.9690   37.4836 H   0  0  0  0  0  0  0  0  0  0  0  0
   19.3028   22.7011   35.9164 H   0  0  0  0  0  0  0  0  0  0  0  0
   19.1540   20.0728   35.4860 H   0  0  0  0  0  0  0  0  0  0  0  0
   20.4283   19.8144   34.2491 H   0  0  0  0  0  0  0  0  0  0  0  0
   20.6014   19.0709   37.2501 H   0  0  0  0  0  0  0  0  0  0  0  0
   20.3225   17.9227   35.8841 H   0  0  0  0  0  0  0  0  0  0  0  0
   21.9040   18.7792   36.0310 H   0  0  0  0  0  0  0  0  0  0  0  0
   23.8729   21.4606   34.0154 H   0  0  0  0  0  0  0  0  0  0  0  0
   22.8175   20.0370   34.1680 H   0  0  0  0  0  0  0  0  0  0  0  0
   25.6788   23.7367   36.3350 H   0  0  0  0  0  0  0  0  0  0  0  0
   25.2856   23.2150   34.6517 H   0  0  0  0  0  0  0  0  0  0  0  0
   24.9627   22.1276   36.0702 H   0  0  0  0  0  0  0  0  0  0  0  0
  1  2  1  0
  2  3  2  0
  2  4  1  0
  4  5  2  0
  5  6  1  0
  6  7  2  0
  7  8  1  0
  8  9  2  0
  9 10  1  0
 10 11  2  0
 11 12  1  0
 12 13  2  0
 13 14  1  0
  1 15  1  0
 15 16  2  0
 16 17  1  0
 17 18  2  0
 18 19  1  0
 19 20  1  0
 20 21  1  0
 21 22  1  0
 20 23  1  0
 23 24  1  0
 23 25  2  0
 25 26  1  0
 26 27  1  0
 13  4  1  0
 26 15  1  0
 12  7  1  0
 25 18  1  0
  1 28  1  0
  8 29  1  0
  9 30  1  0
 10 31  1  0
 11 32  1  0
 14 33  1  0
 14 34  1  0
 17 35  1  0
 19 36  1  0
 19 37  1  0
 21 38  1  0
 21 39  1  0
 22 40  1  0
 22 41  1  0
 22 42  1  0
 24 43  1  0
 24 44  1  0
 27 45  1  0
 27 46  1  0
 27 47  1  0
M  END
$$$$
