confid_0
     RDKit          3D

 45 48  0  0  0  0  0  0  0  0999 V2000
   24.6900   26.1200   35.5300 N   0  0  0  0  0  0  0  0  0  0  0  0
   25.6600   25.6700   34.6600 C   0  0  0  0  0  0  0  0  0  0  0  0
   25.2400   25.0100   33.7200 O   0  0  0  0  0  0  0  0  0  0  0  0
   27.0300   26.2200   34.8800 C   0  0  0  0  0  0  0  0  0  0  0  0
   27.3500   26.7300   36.0700 N   0  0  0  0  0  0  0  0  0  0  0  0
   28.5700   27.1800   36.3300 N   0  0  0  0  0  0  0  0  0  0  0  0
   29.5300   27.1100   35.3900 C   0  0  0  0  0  0  0  0  0  0  0  0
   30.8300   27.5700   35.6500 C   0  0  0  0  0  0  0  0  0  0  0  0
   31.8500   27.5400   34.6900 C   0  0  0  0  0  0  0  0  0  0  0  0
   31.5100   27.1200   33.4000 C   0  0  0  0  0  0  0  0  0  0  0  0
   30.2200   26.6300   33.1100 C   0  0  0  0  0  0  0  0  0  0  0  0
   29.2400   26.6600   34.1000 C   0  0  0  0  0  0  0  0  0  0  0  0
   27.9300   26.2600   33.8100 C   0  0  0  0  0  0  0  0  0  0  0  0
   27.5200   25.7100   32.6100 N   0  0  0  0  0  0  0  0  0  0  0  0
   31.1534   28.0527   36.9673 N   0  0  0  0  0  0  0  0  0  0  0  0
   31.5221   29.4600   37.1363 C   0  0  0  0  0  0  0  0  0  0  0  0
   30.7907   30.0401   38.3447 C   0  0  0  0  0  0  0  0  0  0  0  0
   31.0253   29.1873   39.5644 C   0  0  0  0  0  0  0  0  0  0  0  0
   31.0477   29.7686   40.8450 C   0  0  0  0  0  0  0  0  0  0  0  0
   30.8644   31.1042   41.0029 F   0  0  0  0  0  0  0  0  0  0  0  0
   31.2648   28.9743   41.9726 C   0  0  0  0  0  0  0  0  0  0  0  0
   31.4584   27.6002   41.8347 C   0  0  0  0  0  0  0  0  0  0  0  0
   31.4161   27.0083   40.5708 C   0  0  0  0  0  0  0  0  0  0  0  0
   31.1687   27.7888   39.4228 C   0  0  0  0  0  0  0  0  0  0  0  0
   31.1101   27.2012   38.0994 N   0  0  0  0  0  0  0  0  0  0  0  0
   31.0164   25.7747   37.9199 C   0  0  0  0  0  0  0  0  0  0  0  0
   31.8598   25.1794   37.1977 O   0  0  0  0  0  0  0  0  0  0  0  0
   29.8904   24.9950   38.5228 C   0  0  0  0  0  0  0  0  0  0  0  0
   24.8910   26.7899   36.3055 H   0  0  0  0  0  0  0  0  0  0  0  0
   23.6981   25.8080   35.4226 H   0  0  0  0  0  0  0  0  0  0  0  0
   32.8521   27.8810   34.9177 H   0  0  0  0  0  0  0  0  0  0  0  0
   32.2658   27.1194   32.6254 H   0  0  0  0  0  0  0  0  0  0  0  0
   30.0115   26.2781   32.1080 H   0  0  0  0  0  0  0  0  0  0  0  0
   27.3415   24.6831   32.5417 H   0  0  0  0  0  0  0  0  0  0  0  0
   27.6979   26.2229   31.7183 H   0  0  0  0  0  0  0  0  0  0  0  0
   32.6208   29.5340   37.2880 H   0  0  0  0  0  0  0  0  0  0  0  0
   31.2528   30.0510   36.2329 H   0  0  0  0  0  0  0  0  0  0  0  0
   29.6998   30.0772   38.1356 H   0  0  0  0  0  0  0  0  0  0  0  0
   31.1524   31.0778   38.5108 H   0  0  0  0  0  0  0  0  0  0  0  0
   31.2904   29.4256   42.9561 H   0  0  0  0  0  0  0  0  0  0  0  0
   31.6422   26.9910   42.7104 H   0  0  0  0  0  0  0  0  0  0  0  0
   31.5897   25.9440   40.4976 H   0  0  0  0  0  0  0  0  0  0  0  0
   29.3037   24.5097   37.7150 H   0  0  0  0  0  0  0  0  0  0  0  0
   30.2943   24.2127   39.1985 H   0  0  0  0  0  0  0  0  0  0  0  0
   29.2148   25.6623   39.0977 H   0  0  0  0  0  0  0  0  0  0  0  0
  1  2  1  0
  2  3  2  0
  2  4  1  0
  4  5  2  0
  5  6  1  0
  6  7  2  0
  7  8  1  0
  8  9  2  0
  9 10  1  0
 10 11  2  0
 11 12  1  0
 12 13  2  0
 13 14  1  0
  8 15  1  0
 15 16  1  0
 16 17  1  0
 17 18  1  0
 18 19  2  0
 19 20  1  0
 19 21  1  0
 21 22  2  0
 22 23  1  0
 23 24  2  0
 24 25  1  0
 25 26  1  0
 26 27  2  0
 26 28  1  0
 13  4  1  0
 25 15  1  0
 12  7  1  0
 24 18  1  0
  1 29  1  0
  1 30  1  0
  9 31  1  0
 10 32  1  0
 11 33  1  0
 14 34  1  0
 14 35  1  0
 16 36  1  0
 16 37  1  0
 17 38  1  0
 17 39  1  0
 21 40  1  0
 22 41  1  0
 23 42  1  0
 28 43  1  0
 28 44  1  0
 28 45  1  0
M  END
$$$$
confid_1
     RDKit          3D

 45 48  0  0  0  0  0  0  0  0999 V2000
   24.6900   26.1200   35.5300 N   0  0  0  0  0  0  0  0  0  0  0  0
   25.6600   25.6700   34.6600 C   0  0  0  0  0  0  0  0  0  0  0  0
   25.2400   25.0100   33.7200 O   0  0  0  0  0  0  0  0  0  0  0  0
   27.0300   26.2200   34.8800 C   0  0  0  0  0  0  0  0  0  0  0  0
   27.3500   26.7300   36.0700 N   0  0  0  0  0  0  0  0  0  0  0  0
   28.5700   27.1800   36.3300 N   0  0  0  0  0  0  0  0  0  0  0  0
   29.5300   27.1100   35.3900 C   0  0  0  0  0  0  0  0  0  0  0  0
   30.8300   27.5700   35.6500 C   0  0  0  0  0  0  0  0  0  0  0  0
   31.8500   27.5400   34.6900 C   0  0  0  0  0  0  0  0  0  0  0  0
   31.5100   27.1200   33.4000 C   0  0  0  0  0  0  0  0  0  0  0  0
   30.2200   26.6300   33.1100 C   0  0  0  0  0  0  0  0  0  0  0  0
   29.2400   26.6600   34.1000 C   0  0  0  0  0  0  0  0  0  0  0  0
   27.9300   26.2600   33.8100 C   0  0  0  0  0  0  0  0  0  0  0  0
   27.5200   25.7100   32.6100 N   0  0  0  0  0  0  0  0  0  0  0  0
   31.1531   28.0686   36.9626 N   0  0  0  0  0  0  0  0  0  0  0  0
   30.5252   29.3074   37.4288 C   0  0  0  0  0  0  0  0  0  0  0  0
   31.6074   30.3059   37.8305 C   0  0  0  0  0  0  0  0  0  0  0  0
   32.5601   29.6841   38.8189 C   0  0  0  0  0  0  0  0  0  0  0  0
   33.2054   30.4837   39.7795 C   0  0  0  0  0  0  0  0  0  0  0  0
   32.9765   31.8205   39.8347 F   0  0  0  0  0  0  0  0  0  0  0  0
   34.0887   29.9074   40.6941 C   0  0  0  0  0  0  0  0  0  0  0  0
   34.3384   28.5361   40.6580 C   0  0  0  0  0  0  0  0  0  0  0  0
   33.7218   27.7347   39.6950 C   0  0  0  0  0  0  0  0  0  0  0  0
   32.8470   28.3015   38.7445 C   0  0  0  0  0  0  0  0  0  0  0  0
   32.1994   27.4960   37.7274 N   0  0  0  0  0  0  0  0  0  0  0  0
   32.6150   26.1383   37.4779 C   0  0  0  0  0  0  0  0  0  0  0  0
   33.8353   25.8748   37.3043 O   0  0  0  0  0  0  0  0  0  0  0  0
   31.6082   25.0377   37.3707 C   0  0  0  0  0  0  0  0  0  0  0  0
   23.6981   25.8077   35.4228 H   0  0  0  0  0  0  0  0  0  0  0  0
   24.8908   26.7905   36.3051 H   0  0  0  0  0  0  0  0  0  0  0  0
   32.8498   27.8901   34.9146 H   0  0  0  0  0  0  0  0  0  0  0  0
   32.2653   27.1214   32.6249 H   0  0  0  0  0  0  0  0  0  0  0  0
   30.0114   26.2784   32.1079 H   0  0  0  0  0  0  0  0  0  0  0  0
   27.3416   24.6831   32.5417 H   0  0  0  0  0  0  0  0  0  0  0  0
   27.6978   26.2229   31.7183 H   0  0  0  0  0  0  0  0  0  0  0  0
   29.8902   29.7588   36.6344 H   0  0  0  0  0  0  0  0  0  0  0  0
   29.8788   29.0812   38.3044 H   0  0  0  0  0  0  0  0  0  0  0  0
   31.1154   31.2027   38.2652 H   0  0  0  0  0  0  0  0  0  0  0  0
   32.1766   30.6192   36.9289 H   0  0  0  0  0  0  0  0  0  0  0  0
   34.5767   30.5241   41.4379 H   0  0  0  0  0  0  0  0  0  0  0  0
   35.0123   28.0918   41.3792 H   0  0  0  0  0  0  0  0  0  0  0  0
   33.9244   26.6730   39.7096 H   0  0  0  0  0  0  0  0  0  0  0  0
   30.6417   25.3545   37.8158 H   0  0  0  0  0  0  0  0  0  0  0  0
   31.9721   24.1414   37.9154 H   0  0  0  0  0  0  0  0  0  0  0  0
   31.4527   24.7757   36.3035 H   0  0  0  0  0  0  0  0  0  0  0  0
  1  2  1  0
  2  3  2  0
  2  4  1  0
  4  5  2  0
  5  6  1  0
  6  7  2  0
  7  8  1  0
  8  9  2  0
  9 10  1  0
 10 11  2  0
 11 12  1  0
 12 13  2  0
 13 14  1  0
  8 15  1  0
 15 16  1  0
 16 17  1  0
 17 18  1  0
 18 19  2  0
 19 20  1  0
 19 21  1  0
 21 22  2  0
 22 23  1  0
 23 24  2  0
 24 25  1  0
 25 26  1  0
 26 27  2  0
 26 28  1  0
 13  4  1  0
 25 15  1  0
 12  7  1  0
 24 18  1  0
  1 29  1  0
  1 30  1  0
  9 31  1  0
 10 32  1  0
 11 33  1  0
 14 34  1  0
 14 35  1  0
 16 36  1  0
 16 37  1  0
 17 38  1  0
 17 39  1  0
 21 40  1  0
 22 41  1  0
 23 42  1  0
 28 43  1  0
 28 44  1  0
 28 45  1  0
M  END
$$$$
confid_2
     RDKit          3D

 45 48  0  0  0  0  0  0  0  0999 V2000
   24.6900   26.1200   35.5300 N   0  0  0  0  0  0  0  0  0  0  0  0
   25.6600   25.6700   34.6600 C   0  0  0  0  0  0  0  0  0  0  0  0
   25.2400   25.0100   33.7200 O   0  0  0  0  0  0  0  0  0  0  0  0
   27.0300   26.2200   34.8800 C   0  0  0  0  0  0  0  0  0  0  0  0
   27.3500   26.7300   36.0700 N   0  0  0  0  0  0  0  0  0  0  0  0
   28.5700   27.1800   36.3300 N   0  0  0  0  0  0  0  0  0  0  0  0
   29.5300   27.1100   35.3900 C   0  0  0  0  0  0  0  0  0  0  0  0
   30.8300   27.5700   35.6500 C   0  0  0  0  0  0  0  0  0  0  0  0
   31.8500   27.5400   34.6900 C   0  0  0  0  0  0  0  0  0  0  0  0
   31.5100   27.1200   33.4000 C   0  0  0  0  0  0  0  0  0  0  0  0
   30.2200   26.6300   33.1100 C   0  0  0  0  0  0  0  0  0  0  0  0
   29.2400   26.6600   34.1000 C   0  0  0  0  0  0  0  0  0  0  0  0
   27.9300   26.2600   33.8100 C   0  0  0  0  0  0  0  0  0  0  0  0
   27.5200   25.7100   32.6100 N   0  0  0  0  0  0  0  0  0  0  0  0
   31.1540   28.0691   36.9624 N   0  0  0  0  0  0  0  0  0  0  0  0
   31.1018   27.1559   38.1071 C   0  0  0  0  0  0  0  0  0  0  0  0
   32.4459   27.1689   38.8299 C   0  0  0  0  0  0  0  0  0  0  0  0
   32.8438   28.5794   39.1809 C   0  0  0  0  0  0  0  0  0  0  0  0
   33.6271   28.8312   40.3219 C   0  0  0  0  0  0  0  0  0  0  0  0
   34.0300   27.8130   41.1239 F   0  0  0  0  0  0  0  0  0  0  0  0
   33.9961   30.1379   40.6458 C   0  0  0  0  0  0  0  0  0  0  0  0
   33.5927   31.2003   39.8379 C   0  0  0  0  0  0  0  0  0  0  0  0
   32.8343   30.9617   38.6901 C   0  0  0  0  0  0  0  0  0  0  0  0
   32.4735   29.6463   38.3302 C   0  0  0  0  0  0  0  0  0  0  0  0
   31.6930   29.3673   37.1404 N   0  0  0  0  0  0  0  0  0  0  0  0
   31.4747   30.3822   36.1398 C   0  0  0  0  0  0  0  0  0  0  0  0
   32.4501   31.0378   35.6843 O   0  0  0  0  0  0  0  0  0  0  0  0
   30.1058   30.6367   35.5942 C   0  0  0  0  0  0  0  0  0  0  0  0
   23.6982   25.8073   35.4231 H   0  0  0  0  0  0  0  0  0  0  0  0
   24.8906   26.7912   36.3045 H   0  0  0  0  0  0  0  0  0  0  0  0
   32.8519   27.8824   34.9168 H   0  0  0  0  0  0  0  0  0  0  0  0
   32.2656   27.1204   32.6252 H   0  0  0  0  0  0  0  0  0  0  0  0
   30.0114   26.2785   32.1078 H   0  0  0  0  0  0  0  0  0  0  0  0
   27.6976   26.2231   31.7184 H   0  0  0  0  0  0  0  0  0  0  0  0
   27.3416   24.6831   32.5416 H   0  0  0  0  0  0  0  0  0  0  0  0
   30.8746   26.1167   37.7810 H   0  0  0  0  0  0  0  0  0  0  0  0
   30.2988   27.4866   38.8009 H   0  0  0  0  0  0  0  0  0  0  0  0
   32.3604   26.5424   39.7440 H   0  0  0  0  0  0  0  0  0  0  0  0
   33.2254   26.7272   38.1723 H   0  0  0  0  0  0  0  0  0  0  0  0
   34.5911   30.3293   41.5296 H   0  0  0  0  0  0  0  0  0  0  0  0
   33.8685   32.2131   40.1020 H   0  0  0  0  0  0  0  0  0  0  0  0
   32.5236   31.8115   38.0986 H   0  0  0  0  0  0  0  0  0  0  0  0
   30.0140   30.1803   34.5867 H   0  0  0  0  0  0  0  0  0  0  0  0
   29.9306   31.7301   35.5148 H   0  0  0  0  0  0  0  0  0  0  0  0
   29.3357   30.2022   36.2654 H   0  0  0  0  0  0  0  0  0  0  0  0
  1  2  1  0
  2  3  2  0
  2  4  1  0
  4  5  2  0
  5  6  1  0
  6  7  2  0
  7  8  1  0
  8  9  2  0
  9 10  1  0
 10 11  2  0
 11 12  1  0
 12 13  2  0
 13 14  1  0
  8 15  1  0
 15 16  1  0
 16 17  1  0
 17 18  1  0
 18 19  2  0
 19 20  1  0
 19 21  1  0
 21 22  2  0
 22 23  1  0
 23 24  2  0
 24 25  1  0
 25 26  1  0
 26 27  2  0
 26 28  1  0
 13  4  1  0
 25 15  1  0
 12  7  1  0
 24 18  1  0
  1 29  1  0
  1 30  1  0
  9 31  1  0
 10 32  1  0
 11 33  1  0
 14 34  1  0
 14 35  1  0
 16 36  1  0
 16 37  1  0
 17 38  1  0
 17 39  1  0
 21 40  1  0
 22 41  1  0
 23 42  1  0
 28 43  1  0
 28 44  1  0
 28 45  1  0
M  END
$$$$
confid_3
     RDKit          3D

 45 48  0  0  0  0  0  0  0  0999 V2000
   24.6900   26.1200   35.5300 N   0  0  0  0  0  0  0  0  0  0  0  0
   25.6600   25.6700   34.6600 C   0  0  0  0  0  0  0  0  0  0  0  0
   25.2400   25.0100   33.7200 O   0  0  0  0  0  0  0  0  0  0  0  0
   27.0300   26.2200   34.8800 C   0  0  0  0  0  0  0  0  0  0  0  0
   27.3500   26.7300   36.0700 N   0  0  0  0  0  0  0  0  0  0  0  0
   28.5700   27.1800   36.3300 N   0  0  0  0  0  0  0  0  0  0  0  0
   29.5300   27.1100   35.3900 C   0  0  0  0  0  0  0  0  0  0  0  0
   30.8300   27.5700   35.6500 C   0  0  0  0  0  0  0  0  0  0  0  0
   31.8500   27.5400   34.6900 C   0  0  0  0  0  0  0  0  0  0  0  0
   31.5100   27.1200   33.4000 C   0  0  0  0  0  0  0  0  0  0  0  0
   30.2200   26.6300   33.1100 C   0  0  0  0  0  0  0  0  0  0  0  0
   29.2400   26.6600   34.1000 C   0  0  0  0  0  0  0  0  0  0  0  0
   27.9300   26.2600   33.8100 C   0  0  0  0  0  0  0  0  0  0  0  0
   27.5200   25.7100   32.6100 N   0  0  0  0  0  0  0  0  0  0  0  0
   31.1474   28.0839   36.9577 N   0  0  0  0  0  0  0  0  0  0  0  0
   32.1236   27.3719   37.7844 C   0  0  0  0  0  0  0  0  0  0  0  0
   31.5234   27.1077   39.1625 C   0  0  0  0  0  0  0  0  0  0  0  0
   31.0040   28.3857   39.7702 C   0  0  0  0  0  0  0  0  0  0  0  0
   30.9888   28.5484   41.1674 C   0  0  0  0  0  0  0  0  0  0  0  0
   31.4456   27.5652   41.9841 F   0  0  0  0  0  0  0  0  0  0  0  0
   30.5056   29.7302   41.7316 C   0  0  0  0  0  0  0  0  0  0  0  0
   30.0322   30.7547   40.9131 C   0  0  0  0  0  0  0  0  0  0  0  0
   30.0205   30.5972   39.5258 C   0  0  0  0  0  0  0  0  0  0  0  0
   30.4790   29.4002   38.9363 C   0  0  0  0  0  0  0  0  0  0  0  0
   30.4704   29.2049   37.4994 N   0  0  0  0  0  0  0  0  0  0  0  0
   29.7763   30.1216   36.6292 C   0  0  0  0  0  0  0  0  0  0  0  0
   28.5756   30.4254   36.8635 O   0  0  0  0  0  0  0  0  0  0  0  0
   30.4479   30.6852   35.4181 C   0  0  0  0  0  0  0  0  0  0  0  0
   23.6982   25.8076   35.4229 H   0  0  0  0  0  0  0  0  0  0  0  0
   24.8908   26.7907   36.3048 H   0  0  0  0  0  0  0  0  0  0  0  0
   32.8487   27.8934   34.9137 H   0  0  0  0  0  0  0  0  0  0  0  0
   32.2649   27.1229   32.6245 H   0  0  0  0  0  0  0  0  0  0  0  0
   30.0112   26.2791   32.1077 H   0  0  0  0  0  0  0  0  0  0  0  0
   27.6977   26.2230   31.7183 H   0  0  0  0  0  0  0  0  0  0  0  0
   27.3416   24.6831   32.5416 H   0  0  0  0  0  0  0  0  0  0  0  0
   32.4088   26.4018   37.3203 H   0  0  0  0  0  0  0  0  0  0  0  0
   33.0396   27.9936   37.8841 H   0  0  0  0  0  0  0  0  0  0  0  0
   32.3070   26.6533   39.8066 H   0  0  0  0  0  0  0  0  0  0  0  0
   30.6832   26.3862   39.0689 H   0  0  0  0  0  0  0  0  0  0  0  0
   30.5037   29.8556   42.8068 H   0  0  0  0  0  0  0  0  0  0  0  0
   29.6727   31.6751   41.3551 H   0  0  0  0  0  0  0  0  0  0  0  0
   29.6637   31.4203   38.9229 H   0  0  0  0  0  0  0  0  0  0  0  0
   31.5482   30.5561   35.4920 H   0  0  0  0  0  0  0  0  0  0  0  0
   30.0768   30.1665   34.5098 H   0  0  0  0  0  0  0  0  0  0  0  0
   30.2233   31.7691   35.3346 H   0  0  0  0  0  0  0  0  0  0  0  0
  1  2  1  0
  2  3  2  0
  2  4  1  0
  4  5  2  0
  5  6  1  0
  6  7  2  0
  7  8  1  0
  8  9  2  0
  9 10  1  0
 10 11  2  0
 11 12  1  0
 12 13  2  0
 13 14  1  0
  8 15  1  0
 15 16  1  0
 16 17  1  0
 17 18  1  0
 18 19  2  0
 19 20  1  0
 19 21  1  0
 21 22  2  0
 22 23  1  0
 23 24  2  0
 24 25  1  0
 25 26  1  0
 26 27  2  0
 26 28  1  0
 13  4  1  0
 25 15  1  0
 12  7  1  0
 24 18  1  0
  1 29  1  0
  1 30  1  0
  9 31  1  0
 10 32  1  0
 11 33  1  0
 14 34  1  0
 14 35  1  0
 16 36  1  0
 16 37  1  0
 17 38  1  0
 17 39  1  0
 21 40  1  0
 22 41  1  0
 23 42  1  0
 28 43  1  0
 28 44  1  0
 28 45  1  0
M  END
$$$$
confid_4
     RDKit          3D

 45 48  0  0  0  0  0  0  0  0999 V2000
   24.6900   26.1200   35.5300 N   0  0  0  0  0  0  0  0  0  0  0  0
   25.6600   25.6700   34.6600 C   0  0  0  0  0  0  0  0  0  0  0  0
   25.2400   25.0100   33.7200 O   0  0  0  0  0  0  0  0  0  0  0  0
   27.0300   26.2200   34.8800 C   0  0  0  0  0  0  0  0  0  0  0  0
   27.3500   26.7300   36.0700 N   0  0  0  0  0  0  0  0  0  0  0  0
   28.5700   27.1800   36.3300 N   0  0  0  0  0  0  0  0  0  0  0  0
   29.5300   27.1100   35.3900 C   0  0  0  0  0  0  0  0  0  0  0  0
   30.8300   27.5700   35.6500 C   0  0  0  0  0  0  0  0  0  0  0  0
   31.8500   27.5400   34.6900 C   0  0  0  0  0  0  0  0  0  0  0  0
   31.5100   27.1200   33.4000 C   0  0  0  0  0  0  0  0  0  0  0  0
   30.2200   26.6300   33.1100 C   0  0  0  0  0  0  0  0  0  0  0  0
   29.2400   26.6600   34.1000 C   0  0  0  0  0  0  0  0  0  0  0  0
   27.9300   26.2600   33.8100 C   0  0  0  0  0  0  0  0  0  0  0  0
   27.5200   25.7100   32.6100 N   0  0  0  0  0  0  0  0  0  0  0  0
   31.1567   28.0537   36.9672 N   0  0  0  0  0  0  0  0  0  0  0  0
   31.5685   29.4490   37.1304 C   0  0  0  0  0  0  0  0  0  0  0  0
   30.7158   30.1047   38.2132 C   0  0  0  0  0  0  0  0  0  0  0  0
   30.7485   29.2909   39.4817 C   0  0  0  0  0  0  0  0  0  0  0  0
   30.5981   29.9222   40.7297 C   0  0  0  0  0  0  0  0  0  0  0  0
   30.4291   31.2666   40.8098 F   0  0  0  0  0  0  0  0  0  0  0  0
   30.6258   29.1700   41.9052 C   0  0  0  0  0  0  0  0  0  0  0  0
   30.7995   27.7879   41.8484 C   0  0  0  0  0  0  0  0  0  0  0  0
   30.9271   27.1458   40.6152 C   0  0  0  0  0  0  0  0  0  0  0  0
   30.8746   27.8837   39.4138 C   0  0  0  0  0  0  0  0  0  0  0  0
   30.9949   27.2431   38.1183 N   0  0  0  0  0  0  0  0  0  0  0  0
   30.9439   25.8076   37.9912 C   0  0  0  0  0  0  0  0  0  0  0  0
   29.9972   25.1621   38.5163 O   0  0  0  0  0  0  0  0  0  0  0  0
   31.9770   25.0723   37.1991 C   0  0  0  0  0  0  0  0  0  0  0  0
   24.8909   26.7902   36.3052 H   0  0  0  0  0  0  0  0  0  0  0  0
   23.6981   25.8079   35.4226 H   0  0  0  0  0  0  0  0  0  0  0  0
   32.8524   27.8804   34.9175 H   0  0  0  0  0  0  0  0  0  0  0  0
   32.2645   27.1243   32.6241 H   0  0  0  0  0  0  0  0  0  0  0  0
   30.0103   26.3028   32.1006 H   0  0  0  0  0  0  0  0  0  0  0  0
   26.6941   26.1028   32.1054 H   0  0  0  0  0  0  0  0  0  0  0  0
   28.1316   25.0434   32.0894 H   0  0  0  0  0  0  0  0  0  0  0  0
   31.4483   30.0155   36.1804 H   0  0  0  0  0  0  0  0  0  0  0  0
   32.6405   29.4812   37.4225 H   0  0  0  0  0  0  0  0  0  0  0  0
   31.1022   31.1314   38.3920 H   0  0  0  0  0  0  0  0  0  0  0  0
   29.6643   30.1810   37.8615 H   0  0  0  0  0  0  0  0  0  0  0  0
   30.5188   29.6603   42.8644 H   0  0  0  0  0  0  0  0  0  0  0  0
   30.8355   27.2112   42.7638 H   0  0  0  0  0  0  0  0  0  0  0  0
   31.0791   26.0757   40.6120 H   0  0  0  0  0  0  0  0  0  0  0  0
   32.2924   24.1606   37.7484 H   0  0  0  0  0  0  0  0  0  0  0  0
   32.8680   25.7144   37.0370 H   0  0  0  0  0  0  0  0  0  0  0  0
   31.5536   24.7759   36.2168 H   0  0  0  0  0  0  0  0  0  0  0  0
  1  2  1  0
  2  3  2  0
  2  4  1  0
  4  5  2  0
  5  6  1  0
  6  7  2  0
  7  8  1  0
  8  9  2  0
  9 10  1  0
 10 11  2  0
 11 12  1  0
 12 13  2  0
 13 14  1  0
  8 15  1  0
 15 16  1  0
 16 17  1  0
 17 18  1  0
 18 19  2  0
 19 20  1  0
 19 21  1  0
 21 22  2  0
 22 23  1  0
 23 24  2  0
 24 25  1  0
 25 26  1  0
 26 27  2  0
 26 28  1  0
 13  4  1  0
 25 15  1  0
 12  7  1  0
 24 18  1  0
  1 29  1  0
  1 30  1  0
  9 31  1  0
 10 32  1  0
 11 33  1  0
 14 34  1  0
 14 35  1  0
 16 36  1  0
 16 37  1  0
 17 38  1  0
 17 39  1  0
 21 40  1  0
 22 41  1  0
 23 42  1  0
 28 43  1  0
 28 44  1  0
 28 45  1  0
M  END
$$$$
confid_5
     RDKit          3D

 45 48  0  0  0  0  0  0  0  0999 V2000
   24.6900   26.1200   35.5300 N   0  0  0  0  0  0  0  0  0  0  0  0
   25.6600   25.6700   34.6600 C   0  0  0  0  0  0  0  0  0  0  0  0
   25.2400   25.0100   33.7200 O   0  0  0  0  0  0  0  0  0  0  0  0
   27.0300   26.2200   34.8800 C   0  0  0  0  0  0  0  0  0  0  0  0
   27.3500   26.7300   36.0700 N   0  0  0  0  0  0  0  0  0  0  0  0
   28.5700   27.1800   36.3300 N   0  0  0  0  0  0  0  0  0  0  0  0
   29.5300   27.1100   35.3900 C   0  0  0  0  0  0  0  0  0  0  0  0
   30.8300   27.5700   35.6500 C   0  0  0  0  0  0  0  0  0  0  0  0
   31.8500   27.5400   34.6900 C   0  0  0  0  0  0  0  0  0  0  0  0
   31.5100   27.1200   33.4000 C   0  0  0  0  0  0  0  0  0  0  0  0
   30.2200   26.6300   33.1100 C   0  0  0  0  0  0  0  0  0  0  0  0
   29.2400   26.6600   34.1000 C   0  0  0  0  0  0  0  0  0  0  0  0
   27.9300   26.2600   33.8100 C   0  0  0  0  0  0  0  0  0  0  0  0
   27.5200   25.7100   32.6100 N   0  0  0  0  0  0  0  0  0  0  0  0
   31.1524   28.0749   36.9601 N   0  0  0  0  0  0  0  0  0  0  0  0
   30.5302   29.3211   37.4169 C   0  0  0  0  0  0  0  0  0  0  0  0
   31.5986   30.2508   37.9880 C   0  0  0  0  0  0  0  0  0  0  0  0
   32.4030   29.5410   39.0454 C   0  0  0  0  0  0  0  0  0  0  0  0
   32.9402   30.2548   40.1318 C   0  0  0  0  0  0  0  0  0  0  0  0
   32.7395   31.5920   40.2495 F   0  0  0  0  0  0  0  0  0  0  0  0
   33.6852   29.5903   41.1081 C   0  0  0  0  0  0  0  0  0  0  0  0
   33.9022   28.2162   41.0095 C   0  0  0  0  0  0  0  0  0  0  0  0
   33.3925   27.5009   39.9240 C   0  0  0  0  0  0  0  0  0  0  0  0
   32.6625   28.1589   38.9132 C   0  0  0  0  0  0  0  0  0  0  0  0
   32.1292   27.4450   37.7707 N   0  0  0  0  0  0  0  0  0  0  0  0
   32.5763   26.1143   37.4477 C   0  0  0  0  0  0  0  0  0  0  0  0
   31.7326   25.1900   37.3031 O   0  0  0  0  0  0  0  0  0  0  0  0
   34.0252   25.8257   37.2107 C   0  0  0  0  0  0  0  0  0  0  0  0
   24.8908   26.7905   36.3050 H   0  0  0  0  0  0  0  0  0  0  0  0
   23.6981   25.8077   35.4228 H   0  0  0  0  0  0  0  0  0  0  0  0
   32.8496   27.8906   34.9149 H   0  0  0  0  0  0  0  0  0  0  0  0
   32.2653   27.1215   32.6249 H   0  0  0  0  0  0  0  0  0  0  0  0
   30.0114   26.2785   32.1078 H   0  0  0  0  0  0  0  0  0  0  0  0
   27.3415   24.6831   32.5416 H   0  0  0  0  0  0  0  0  0  0  0  0
   27.6978   26.2229   31.7183 H   0  0  0  0  0  0  0  0  0  0  0  0
   30.0119   29.8367   36.5782 H   0  0  0  0  0  0  0  0  0  0  0  0
   29.7781   29.0874   38.2014 H   0  0  0  0  0  0  0  0  0  0  0  0
   31.0967   31.1494   38.4073 H   0  0  0  0  0  0  0  0  0  0  0  0
   32.2811   30.5770   37.1738 H   0  0  0  0  0  0  0  0  0  0  0  0
   34.0901   30.1404   41.9479 H   0  0  0  0  0  0  0  0  0  0  0  0
   34.4671   27.7029   41.7770 H   0  0  0  0  0  0  0  0  0  0  0  0
   33.5620   26.4340   39.8872 H   0  0  0  0  0  0  0  0  0  0  0  0
   34.6342   26.7454   37.3358 H   0  0  0  0  0  0  0  0  0  0  0  0
   34.1618   25.4502   36.1751 H   0  0  0  0  0  0  0  0  0  0  0  0
   34.3765   25.0540   37.9267 H   0  0  0  0  0  0  0  0  0  0  0  0
  1  2  1  0
  2  3  2  0
  2  4  1  0
  4  5  2  0
  5  6  1  0
  6  7  2  0
  7  8  1  0
  8  9  2  0
  9 10  1  0
 10 11  2  0
 11 12  1  0
 12 13  2  0
 13 14  1  0
  8 15  1  0
 15 16  1  0
 16 17  1  0
 17 18  1  0
 18 19  2  0
 19 20  1  0
 19 21  1  0
 21 22  2  0
 22 23  1  0
 23 24  2  0
 24 25  1  0
 25 26  1  0
 26 27  2  0
 26 28  1  0
 13  4  1  0
 25 15  1  0
 12  7  1  0
 24 18  1  0
  1 29  1  0
  1 30  1  0
  9 31  1  0
 10 32  1  0
 11 33  1  0
 14 34  1  0
 14 35  1  0
 16 36  1  0
 16 37  1  0
 17 38  1  0
 17 39  1  0
 21 40  1  0
 22 41  1  0
 23 42  1  0
 28 43  1  0
 28 44  1  0
 28 45  1  0
M  END
$$$$
confid_6
     RDKit          3D

 45 48  0  0  0  0  0  0  0  0999 V2000
   24.6900   26.1200   35.5300 N   0  0  0  0  0  0  0  0  0  0  0  0
   25.6600   25.6700   34.6600 C   0  0  0  0  0  0  0  0  0  0  0  0
   25.2400   25.0100   33.7200 O   0  0  0  0  0  0  0  0  0  0  0  0
   27.0300   26.2200   34.8800 C   0  0  0  0  0  0  0  0  0  0  0  0
   27.3500   26.7300   36.0700 N   0  0  0  0  0  0  0  0  0  0  0  0
   28.5700   27.1800   36.3300 N   0  0  0  0  0  0  0  0  0  0  0  0
   29.5300   27.1100   35.3900 C   0  0  0  0  0  0  0  0  0  0  0  0
   30.8300   27.5700   35.6500 C   0  0  0  0  0  0  0  0  0  0  0  0
   31.8500   27.5400   34.6900 C   0  0  0  0  0  0  0  0  0  0  0  0
   31.5100   27.1200   33.4000 C   0  0  0  0  0  0  0  0  0  0  0  0
   30.2200   26.6300   33.1100 C   0  0  0  0  0  0  0  0  0  0  0  0
   29.2400   26.6600   34.1000 C   0  0  0  0  0  0  0  0  0  0  0  0
   27.9300   26.2600   33.8100 C   0  0  0  0  0  0  0  0  0  0  0  0
   27.5200   25.7100   32.6100 N   0  0  0  0  0  0  0  0  0  0  0  0
   31.1442   28.0822   36.9581 N   0  0  0  0  0  0  0  0  0  0  0  0
   32.0858   27.3435   37.8024 C   0  0  0  0  0  0  0  0  0  0  0  0
   31.5392   27.2558   39.2255 C   0  0  0  0  0  0  0  0  0  0  0  0
   31.1876   28.6266   39.7422 C   0  0  0  0  0  0  0  0  0  0  0  0
   31.2964   28.9196   41.1137 C   0  0  0  0  0  0  0  0  0  0  0  0
   31.7244   27.9771   41.9917 F   0  0  0  0  0  0  0  0  0  0  0  0
   30.9683   30.1913   41.5877 C   0  0  0  0  0  0  0  0  0  0  0  0
   30.5289   31.1765   40.7039 C   0  0  0  0  0  0  0  0  0  0  0  0
   30.3955   30.8909   39.3437 C   0  0  0  0  0  0  0  0  0  0  0  0
   30.6936   29.6043   38.8500 C   0  0  0  0  0  0  0  0  0  0  0  0
   30.5563   29.2762   37.4453 N   0  0  0  0  0  0  0  0  0  0  0  0
   29.8371   30.1404   36.5442 C   0  0  0  0  0  0  0  0  0  0  0  0
   30.3979   30.5545   35.4948 O   0  0  0  0  0  0  0  0  0  0  0  0
   28.4078   30.5021   36.8004 C   0  0  0  0  0  0  0  0  0  0  0  0
   24.8907   26.7914   36.3043 H   0  0  0  0  0  0  0  0  0  0  0  0
   23.6982   25.8075   35.4230 H   0  0  0  0  0  0  0  0  0  0  0  0
   32.8487   27.8930   34.9143 H   0  0  0  0  0  0  0  0  0  0  0  0
   32.2636   27.1276   32.6232 H   0  0  0  0  0  0  0  0  0  0  0  0
   30.0100   26.3037   32.1003 H   0  0  0  0  0  0  0  0  0  0  0  0
   26.6941   26.1029   32.1054 H   0  0  0  0  0  0  0  0  0  0  0  0
   28.1317   25.0436   32.0892 H   0  0  0  0  0  0  0  0  0  0  0  0
   33.0646   27.8702   37.8051 H   0  0  0  0  0  0  0  0  0  0  0  0
   32.2434   26.3136   37.4118 H   0  0  0  0  0  0  0  0  0  0  0  0
   30.6260   26.6225   39.2340 H   0  0  0  0  0  0  0  0  0  0  0  0
   32.3070   26.7742   39.8689 H   0  0  0  0  0  0  0  0  0  0  0  0
   31.0615   30.4167   42.6423 H   0  0  0  0  0  0  0  0  0  0  0  0
   30.2909   32.1655   41.0739 H   0  0  0  0  0  0  0  0  0  0  0  0
   30.0714   31.6827   38.6832 H   0  0  0  0  0  0  0  0  0  0  0  0
   28.0460   30.0310   37.7383 H   0  0  0  0  0  0  0  0  0  0  0  0
   28.3078   31.6044   36.8822 H   0  0  0  0  0  0  0  0  0  0  0  0
   27.7795   30.1417   35.9592 H   0  0  0  0  0  0  0  0  0  0  0  0
  1  2  1  0
  2  3  2  0
  2  4  1  0
  4  5  2  0
  5  6  1  0
  6  7  2  0
  7  8  1  0
  8  9  2  0
  9 10  1  0
 10 11  2  0
 11 12  1  0
 12 13  2  0
 13 14  1  0
  8 15  1  0
 15 16  1  0
 16 17  1  0
 17 18  1  0
 18 19  2  0
 19 20  1  0
 19 21  1  0
 21 22  2  0
 22 23  1  0
 23 24  2  0
 24 25  1  0
 25 26  1  0
 26 27  2  0
 26 28  1  0
 13  4  1  0
 25 15  1  0
 12  7  1  0
 24 18  1  0
  1 29  1  0
  1 30  1  0
  9 31  1  0
 10 32  1  0
 11 33  1  0
 14 34  1  0
 14 35  1  0
 16 36  1  0
 16 37  1  0
 17 38  1  0
 17 39  1  0
 21 40  1  0
 22 41  1  0
 23 42  1  0
 28 43  1  0
 28 44  1  0
 28 45  1  0
M  END
$$$$
confid_7
     RDKit          3D

 45 48  0  0  0  0  0  0  0  0999 V2000
   24.6900   26.1200   35.5300 N   0  0  0  0  0  0  0  0  0  0  0  0
   25.6600   25.6700   34.6600 C   0  0  0  0  0  0  0  0  0  0  0  0
   25.2400   25.0100   33.7200 O   0  0  0  0  0  0  0  0  0  0  0  0
   27.0300   26.2200   34.8800 C   0  0  0  0  0  0  0  0  0  0  0  0
   27.3500   26.7300   36.0700 N   0  0  0  0  0  0  0  0  0  0  0  0
   28.5700   27.1800   36.3300 N   0  0  0  0  0  0  0  0  0  0  0  0
   29.5300   27.1100   35.3900 C   0  0  0  0  0  0  0  0  0  0  0  0
   30.8300   27.5700   35.6500 C   0  0  0  0  0  0  0  0  0  0  0  0
   31.8500   27.5400   34.6900 C   0  0  0  0  0  0  0  0  0  0  0  0
   31.5100   27.1200   33.4000 C   0  0  0  0  0  0  0  0  0  0  0  0
   30.2200   26.6300   33.1100 C   0  0  0  0  0  0  0  0  0  0  0  0
   29.2400   26.6600   34.1000 C   0  0  0  0  0  0  0  0  0  0  0  0
   27.9300   26.2600   33.8100 C   0  0  0  0  0  0  0  0  0  0  0  0
   27.5200   25.7100   32.6100 N   0  0  0  0  0  0  0  0  0  0  0  0
   31.1571   28.0616   36.9643 N   0  0  0  0  0  0  0  0  0  0  0  0
   31.1139   27.1398   38.1034 C   0  0  0  0  0  0  0  0  0  0  0  0
   32.3948   27.2744   38.9237 C   0  0  0  0  0  0  0  0  0  0  0  0
   32.6264   28.7131   39.3052 C   0  0  0  0  0  0  0  0  0  0  0  0
   33.2689   29.0357   40.5142 C   0  0  0  0  0  0  0  0  0  0  0  0
   33.6859   28.0591   41.3594 F   0  0  0  0  0  0  0  0  0  0  0  0
   33.4806   30.3716   40.8612 C   0  0  0  0  0  0  0  0  0  0  0  0
   33.0583   31.3922   40.0096 C   0  0  0  0  0  0  0  0  0  0  0  0
   32.4393   31.0835   38.7966 C   0  0  0  0  0  0  0  0  0  0  0  0
   32.2427   29.7405   38.4153 C   0  0  0  0  0  0  0  0  0  0  0  0
   31.6117   29.3895   37.1591 N   0  0  0  0  0  0  0  0  0  0  0  0
   31.4415   30.3641   36.1121 C   0  0  0  0  0  0  0  0  0  0  0  0
   30.2987   30.5562   35.6177 O   0  0  0  0  0  0  0  0  0  0  0  0
   32.6150   31.1031   35.5505 C   0  0  0  0  0  0  0  0  0  0  0  0
   23.6981   25.8078   35.4227 H   0  0  0  0  0  0  0  0  0  0  0  0
   24.8908   26.7905   36.3050 H   0  0  0  0  0  0  0  0  0  0  0  0
   32.8518   27.8829   34.9171 H   0  0  0  0  0  0  0  0  0  0  0  0
   32.2643   27.1256   32.6238 H   0  0  0  0  0  0  0  0  0  0  0  0
   30.0101   26.3033   32.1004 H   0  0  0  0  0  0  0  0  0  0  0  0
   28.1317   25.0435   32.0893 H   0  0  0  0  0  0  0  0  0  0  0  0
   26.6941   26.1028   32.1054 H   0  0  0  0  0  0  0  0  0  0  0  0
   30.2345   27.3842   38.7379 H   0  0  0  0  0  0  0  0  0  0  0  0
   31.0141   26.0867   37.7584 H   0  0  0  0  0  0  0  0  0  0  0  0
   33.2594   26.9163   38.3243 H   0  0  0  0  0  0  0  0  0  0  0  0
   32.3040   26.6337   39.8274 H   0  0  0  0  0  0  0  0  0  0  0  0
   33.9673   30.6175   41.7963 H   0  0  0  0  0  0  0  0  0  0  0  0
   33.2107   32.4264   40.2903 H   0  0  0  0  0  0  0  0  0  0  0  0
   32.1066   31.8979   38.1685 H   0  0  0  0  0  0  0  0  0  0  0  0
   32.4677   32.1955   35.6795 H   0  0  0  0  0  0  0  0  0  0  0  0
   32.7114   30.8743   34.4686 H   0  0  0  0  0  0  0  0  0  0  0  0
   33.5523   30.7974   36.0608 H   0  0  0  0  0  0  0  0  0  0  0  0
  1  2  1  0
  2  3  2  0
  2  4  1  0
  4  5  2  0
  5  6  1  0
  6  7  2  0
  7  8  1  0
  8  9  2  0
  9 10  1  0
 10 11  2  0
 11 12  1  0
 12 13  2  0
 13 14  1  0
  8 15  1  0
 15 16  1  0
 16 17  1  0
 17 18  1  0
 18 19  2  0
 19 20  1  0
 19 21  1  0
 21 22  2  0
 22 23  1  0
 23 24  2  0
 24 25  1  0
 25 26  1  0
 26 27  2  0
 26 28  1  0
 13  4  1  0
 25 15  1  0
 12  7  1  0
 24 18  1  0
  1 29  1  0
  1 30  1  0
  9 31  1  0
 10 32  1  0
 11 33  1  0
 14 34  1  0
 14 35  1  0
 16 36  1  0
 16 37  1  0
 17 38  1  0
 17 39  1  0
 21 40  1  0
 22 41  1  0
 23 42  1  0
 28 43  1  0
 28 44  1  0
 28 45  1  0
M  END
$$$$
