confid_0
     RDKit          3D

 41 43  0  0  0  0  0  0  0  0999 V2000
   24.4800   26.1000   36.1300 N   0  0  0  0  0  0  0  0  0  0  0  0
   25.2500   26.2500   34.9900 C   0  0  0  0  0  0  0  0  0  0  0  0
   24.7400   25.7600   33.9900 O   0  0  0  0  0  0  0  0  0  0  0  0
   26.5900   26.8900   34.9600 C   0  0  0  0  0  0  0  0  0  0  0  0
   27.0600   27.2400   36.1600 N   0  0  0  0  0  0  0  0  0  0  0  0
   28.3000   27.7100   36.2400 N   0  0  0  0  0  0  0  0  0  0  0  0
   29.0500   27.9600   35.1500 C   0  0  0  0  0  0  0  0  0  0  0  0
   30.3400   28.4900   35.2600 C   0  0  0  0  0  0  0  0  0  0  0  0
   31.1100   28.8200   34.1400 C   0  0  0  0  0  0  0  0  0  0  0  0
   30.5200   28.6700   32.8800 C   0  0  0  0  0  0  0  0  0  0  0  0
   29.2900   28.0200   32.7700 C   0  0  0  0  0  0  0  0  0  0  0  0
   28.5200   27.7100   33.8900 C   0  0  0  0  0  0  0  0  0  0  0  0
   27.2700   27.0800   33.7600 C   0  0  0  0  0  0  0  0  0  0  0  0
   26.7500   26.8800   32.4900 N   0  0  0  0  0  0  0  0  0  0  0  0
   23.0462   25.9373   36.1308 C   0  0  0  0  0  0  0  0  0  0  0  0
   22.2509   26.6702   35.2302 C   0  0  0  0  0  0  0  0  0  0  0  0
   20.8567   26.5503   35.2453 C   0  0  0  0  0  0  0  0  0  0  0  0
   19.8862   27.4628   34.0937 S   0  0  0  0  0  6  0  0  0  0  0  0
   18.4696   27.5731   34.5845 O   0  0  0  0  0  0  0  0  0  0  0  0
   20.4534   28.8462   33.9413 O   0  0  0  0  0  0  0  0  0  0  0  0
   19.9032   26.6319   32.5215 C   0  0  0  0  0  0  0  0  0  0  0  0
   20.2455   25.6928   36.1657 C   0  0  0  0  0  0  0  0  0  0  0  0
   21.0201   24.9694   37.0739 C   0  0  0  0  0  0  0  0  0  0  0  0
   22.4207   25.0814   37.0669 C   0  0  0  0  0  0  0  0  0  0  0  0
   23.2310   24.2905   38.0579 C   0  0  0  0  0  0  0  0  0  0  0  0
   24.9672   26.1085   37.0538 H   0  0  0  0  0  0  0  0  0  0  0  0
   30.7582   28.6623   36.2441 H   0  0  0  0  0  0  0  0  0  0  0  0
   32.0994   29.2455   34.2469 H   0  0  0  0  0  0  0  0  0  0  0  0
   31.0715   28.9443   31.9899 H   0  0  0  0  0  0  0  0  0  0  0  0
   28.9436   27.8129   31.7669 H   0  0  0  0  0  0  0  0  0  0  0  0
   26.3611   25.9531   32.2112 H   0  0  0  0  0  0  0  0  0  0  0  0
   26.7155   27.6567   31.7926 H   0  0  0  0  0  0  0  0  0  0  0  0
   22.7165   27.3490   34.5264 H   0  0  0  0  0  0  0  0  0  0  0  0
   20.9490   26.5398   32.1616 H   0  0  0  0  0  0  0  0  0  0  0  0
   19.3117   27.2159   31.7865 H   0  0  0  0  0  0  0  0  0  0  0  0
   19.4605   25.6203   32.6307 H   0  0  0  0  0  0  0  0  0  0  0  0
   19.1684   25.5855   36.1852 H   0  0  0  0  0  0  0  0  0  0  0  0
   20.5239   24.3186   37.7837 H   0  0  0  0  0  0  0  0  0  0  0  0
   24.0523   23.7560   37.5360 H   0  0  0  0  0  0  0  0  0  0  0  0
   23.6614   24.9743   38.8186 H   0  0  0  0  0  0  0  0  0  0  0  0
   22.6102   23.5319   38.5798 H   0  0  0  0  0  0  0  0  0  0  0  0
  1  2  1  0
  2  3  2  0
  2  4  1  0
  4  5  2  0
  5  6  1  0
  6  7  2  0
  7  8  1  0
  8  9  2  0
  9 10  1  0
 10 11  2  0
 11 12  1  0
 12 13  2  0
 13 14  1  0
  1 15  1  0
 15 16  2  0
 16 17  1  0
 17 18  1  0
 18 19  2  0
 18 20  2  0
 18 21  1  0
 17 22  2  0
 22 23  1  0
 23 24  2  0
 24 25  1  0
 13  4  1  0
 24 15  1  0
 12  7  1  0
  1 26  1  0
  8 27  1  0
  9 28  1  0
 10 29  1  0
 11 30  1  0
 14 31  1  0
 14 32  1  0
 16 33  1  0
 21 34  1  0
 21 35  1  0
 21 36  1  0
 22 37  1  0
 23 38  1  0
 25 39  1  0
 25 40  1  0
 25 41  1  0
M  END
$$$$
confid_1
     RDKit          3D

 41 43  0  0  0  0  0  0  0  0999 V2000
   24.4800   26.1000   36.1300 N   0  0  0  0  0  0  0  0  0  0  0  0
   25.2500   26.2500   34.9900 C   0  0  0  0  0  0  0  0  0  0  0  0
   24.7400   25.7600   33.9900 O   0  0  0  0  0  0  0  0  0  0  0  0
   26.5900   26.8900   34.9600 C   0  0  0  0  0  0  0  0  0  0  0  0
   27.0600   27.2400   36.1600 N   0  0  0  0  0  0  0  0  0  0  0  0
   28.3000   27.7100   36.2400 N   0  0  0  0  0  0  0  0  0  0  0  0
   29.0500   27.9600   35.1500 C   0  0  0  0  0  0  0  0  0  0  0  0
   30.3400   28.4900   35.2600 C   0  0  0  0  0  0  0  0  0  0  0  0
   31.1100   28.8200   34.1400 C   0  0  0  0  0  0  0  0  0  0  0  0
   30.5200   28.6700   32.8800 C   0  0  0  0  0  0  0  0  0  0  0  0
   29.2900   28.0200   32.7700 C   0  0  0  0  0  0  0  0  0  0  0  0
   28.5200   27.7100   33.8900 C   0  0  0  0  0  0  0  0  0  0  0  0
   27.2700   27.0800   33.7600 C   0  0  0  0  0  0  0  0  0  0  0  0
   26.7500   26.8800   32.4900 N   0  0  0  0  0  0  0  0  0  0  0  0
   23.0457   25.9382   36.1291 C   0  0  0  0  0  0  0  0  0  0  0  0
   22.2524   26.6789   35.2334 C   0  0  0  0  0  0  0  0  0  0  0  0
   20.8579   26.5585   35.2441 C   0  0  0  0  0  0  0  0  0  0  0  0
   19.8840   27.5148   34.1324 S   0  0  0  0  0  6  0  0  0  0  0  0
   20.6160   27.6778   32.8296 O   0  0  0  0  0  0  0  0  0  0  0  0
   18.5767   26.8226   33.8674 O   0  0  0  0  0  0  0  0  0  0  0  0
   19.5754   29.1129   34.8484 C   0  0  0  0  0  0  0  0  0  0  0  0
   20.2437   25.7094   36.1695 C   0  0  0  0  0  0  0  0  0  0  0  0
   21.0167   24.9777   37.0723 C   0  0  0  0  0  0  0  0  0  0  0  0
   22.4179   25.0798   37.0611 C   0  0  0  0  0  0  0  0  0  0  0  0
   23.2256   24.2835   38.0496 C   0  0  0  0  0  0  0  0  0  0  0  0
   24.9665   26.1081   37.0540 H   0  0  0  0  0  0  0  0  0  0  0  0
   30.7582   28.6623   36.2441 H   0  0  0  0  0  0  0  0  0  0  0  0
   32.0994   29.2455   34.2469 H   0  0  0  0  0  0  0  0  0  0  0  0
   31.0715   28.9443   31.9898 H   0  0  0  0  0  0  0  0  0  0  0  0
   28.9437   27.8129   31.7669 H   0  0  0  0  0  0  0  0  0  0  0  0
   26.7151   27.6568   31.7928 H   0  0  0  0  0  0  0  0  0  0  0  0
   26.3614   25.9530   32.2111 H   0  0  0  0  0  0  0  0  0  0  0  0
   22.7201   27.3708   34.5444 H   0  0  0  0  0  0  0  0  0  0  0  0
   18.9649   29.7224   34.1512 H   0  0  0  0  0  0  0  0  0  0  0  0
   19.0300   28.9895   35.8063 H   0  0  0  0  0  0  0  0  0  0  0  0
   20.5405   29.6255   35.0391 H   0  0  0  0  0  0  0  0  0  0  0  0
   19.1652   25.6193   36.1999 H   0  0  0  0  0  0  0  0  0  0  0  0
   20.5183   24.3279   37.7801 H   0  0  0  0  0  0  0  0  0  0  0  0
   24.0530   23.7560   37.5295 H   0  0  0  0  0  0  0  0  0  0  0  0
   23.6478   24.9638   38.8188 H   0  0  0  0  0  0  0  0  0  0  0  0
   22.6040   23.5179   38.5602 H   0  0  0  0  0  0  0  0  0  0  0  0
  1  2  1  0
  2  3  2  0
  2  4  1  0
  4  5  2  0
  5  6  1  0
  6  7  2  0
  7  8  1  0
  8  9  2  0
  9 10  1  0
 10 11  2  0
 11 12  1  0
 12 13  2  0
 13 14  1  0
  1 15  1  0
 15 16  2  0
 16 17  1  0
 17 18  1  0
 18 19  2  0
 18 20  2  0
 18 21  1  0
 17 22  2  0
 22 23  1  0
 23 24  2  0
 24 25  1  0
 13  4  1  0
 24 15  1  0
 12  7  1  0
  1 26  1  0
  8 27  1  0
  9 28  1  0
 10 29  1  0
 11 30  1  0
 14 31  1  0
 14 32  1  0
 16 33  1  0
 21 34  1  0
 21 35  1  0
 21 36  1  0
 22 37  1  0
 23 38  1  0
 25 39  1  0
 25 40  1  0
 25 41  1  0
M  END
$$$$
confid_2
     RDKit          3D

 41 43  0  0  0  0  0  0  0  0999 V2000
   24.4800   26.1000   36.1300 N   0  0  0  0  0  0  0  0  0  0  0  0
   25.2500   26.2500   34.9900 C   0  0  0  0  0  0  0  0  0  0  0  0
   24.7400   25.7600   33.9900 O   0  0  0  0  0  0  0  0  0  0  0  0
   26.5900   26.8900   34.9600 C   0  0  0  0  0  0  0  0  0  0  0  0
   27.0600   27.2400   36.1600 N   0  0  0  0  0  0  0  0  0  0  0  0
   28.3000   27.7100   36.2400 N   0  0  0  0  0  0  0  0  0  0  0  0
   29.0500   27.9600   35.1500 C   0  0  0  0  0  0  0  0  0  0  0  0
   30.3400   28.4900   35.2600 C   0  0  0  0  0  0  0  0  0  0  0  0
   31.1100   28.8200   34.1400 C   0  0  0  0  0  0  0  0  0  0  0  0
   30.5200   28.6700   32.8800 C   0  0  0  0  0  0  0  0  0  0  0  0
   29.2900   28.0200   32.7700 C   0  0  0  0  0  0  0  0  0  0  0  0
   28.5200   27.7100   33.8900 C   0  0  0  0  0  0  0  0  0  0  0  0
   27.2700   27.0800   33.7600 C   0  0  0  0  0  0  0  0  0  0  0  0
   26.7500   26.8800   32.4900 N   0  0  0  0  0  0  0  0  0  0  0  0
   23.0466   25.9334   36.1299 C   0  0  0  0  0  0  0  0  0  0  0  0
   22.2502   26.6694   35.2330 C   0  0  0  0  0  0  0  0  0  0  0  0
   20.8564   26.5410   35.2429 C   0  0  0  0  0  0  0  0  0  0  0  0
   19.8727   27.4778   34.1231 S   0  0  0  0  0  6  0  0  0  0  0  0
   18.6321   26.7070   33.7681 O   0  0  0  0  0  0  0  0  0  0  0  0
   20.6492   27.7479   32.8648 O   0  0  0  0  0  0  0  0  0  0  0  0
   19.4195   29.0193   34.8843 C   0  0  0  0  0  0  0  0  0  0  0  0
   20.2463   25.6928   36.1719 C   0  0  0  0  0  0  0  0  0  0  0  0
   21.0221   24.9676   37.0774 C   0  0  0  0  0  0  0  0  0  0  0  0
   22.4227   25.0731   37.0631 C   0  0  0  0  0  0  0  0  0  0  0  0
   23.2338   24.2799   38.0514 C   0  0  0  0  0  0  0  0  0  0  0  0
   24.9679   26.1018   37.0531 H   0  0  0  0  0  0  0  0  0  0  0  0
   30.7580   28.6629   36.2441 H   0  0  0  0  0  0  0  0  0  0  0  0
   32.0983   29.2480   34.2470 H   0  0  0  0  0  0  0  0  0  0  0  0
   31.0669   28.9543   31.9901 H   0  0  0  0  0  0  0  0  0  0  0  0
   28.9258   27.8587   31.7656 H   0  0  0  0  0  0  0  0  0  0  0  0
   25.7671   27.1502   32.2661 H   0  0  0  0  0  0  0  0  0  0  0  0
   27.2968   26.3787   31.7553 H   0  0  0  0  0  0  0  0  0  0  0  0
   22.7155   27.3607   34.5418 H   0  0  0  0  0  0  0  0  0  0  0  0
   18.8134   29.6204   34.1758 H   0  0  0  0  0  0  0  0  0  0  0  0
   20.3364   29.5823   35.1553 H   0  0  0  0  0  0  0  0  0  0  0  0
   18.8262   28.8198   35.8004 H   0  0  0  0  0  0  0  0  0  0  0  0
   19.1682   25.5985   36.2018 H   0  0  0  0  0  0  0  0  0  0  0  0
   20.5264   24.3209   37.7908 H   0  0  0  0  0  0  0  0  0  0  0  0
   22.6202   23.4968   38.5457 H   0  0  0  0  0  0  0  0  0  0  0  0
   24.0758   23.7728   37.5346 H   0  0  0  0  0  0  0  0  0  0  0  0
   23.6356   24.9580   38.8330 H   0  0  0  0  0  0  0  0  0  0  0  0
  1  2  1  0
  2  3  2  0
  2  4  1  0
  4  5  2  0
  5  6  1  0
  6  7  2  0
  7  8  1  0
  8  9  2  0
  9 10  1  0
 10 11  2  0
 11 12  1  0
 12 13  2  0
 13 14  1  0
  1 15  1  0
 15 16  2  0
 16 17  1  0
 17 18  1  0
 18 19  2  0
 18 20  2  0
 18 21  1  0
 17 22  2  0
 22 23  1  0
 23 24  2  0
 24 25  1  0
 13  4  1  0
 24 15  1  0
 12  7  1  0
  1 26  1  0
  8 27  1  0
  9 28  1  0
 10 29  1  0
 11 30  1  0
 14 31  1  0
 14 32  1  0
 16 33  1  0
 21 34  1  0
 21 35  1  0
 21 36  1  0
 22 37  1  0
 23 38  1  0
 25 39  1  0
 25 40  1  0
 25 41  1  0
M  END
$$$$
confid_3
     RDKit          3D

 41 43  0  0  0  0  0  0  0  0999 V2000
   24.4800   26.1000   36.1300 N   0  0  0  0  0  0  0  0  0  0  0  0
   25.2500   26.2500   34.9900 C   0  0  0  0  0  0  0  0  0  0  0  0
   24.7400   25.7600   33.9900 O   0  0  0  0  0  0  0  0  0  0  0  0
   26.5900   26.8900   34.9600 C   0  0  0  0  0  0  0  0  0  0  0  0
   27.0600   27.2400   36.1600 N   0  0  0  0  0  0  0  0  0  0  0  0
   28.3000   27.7100   36.2400 N   0  0  0  0  0  0  0  0  0  0  0  0
   29.0500   27.9600   35.1500 C   0  0  0  0  0  0  0  0  0  0  0  0
   30.3400   28.4900   35.2600 C   0  0  0  0  0  0  0  0  0  0  0  0
   31.1100   28.8200   34.1400 C   0  0  0  0  0  0  0  0  0  0  0  0
   30.5200   28.6700   32.8800 C   0  0  0  0  0  0  0  0  0  0  0  0
   29.2900   28.0200   32.7700 C   0  0  0  0  0  0  0  0  0  0  0  0
   28.5200   27.7100   33.8900 C   0  0  0  0  0  0  0  0  0  0  0  0
   27.2700   27.0800   33.7600 C   0  0  0  0  0  0  0  0  0  0  0  0
   26.7500   26.8800   32.4900 N   0  0  0  0  0  0  0  0  0  0  0  0
   23.0607   25.8389   36.1360 C   0  0  0  0  0  0  0  0  0  0  0  0
   22.2165   26.4888   35.2152 C   0  0  0  0  0  0  0  0  0  0  0  0
   20.8342   26.2688   35.2346 C   0  0  0  0  0  0  0  0  0  0  0  0
   19.7810   27.0448   34.0538 S   0  0  0  0  0  6  0  0  0  0  0  0
   20.5117   28.1537   33.3507 O   0  0  0  0  0  0  0  0  0  0  0  0
   18.5848   27.6228   34.7554 O   0  0  0  0  0  0  0  0  0  0  0  0
   19.2481   25.8413   32.8559 C   0  0  0  0  0  0  0  0  0  0  0  0
   20.2857   25.4000   36.1811 C   0  0  0  0  0  0  0  0  0  0  0  0
   21.1073   24.7630   37.1104 C   0  0  0  0  0  0  0  0  0  0  0  0
   22.4954   24.9703   37.0980 C   0  0  0  0  0  0  0  0  0  0  0  0
   23.3584   24.2514   38.0989 C   0  0  0  0  0  0  0  0  0  0  0  0
   24.9587   26.1700   37.0550 H   0  0  0  0  0  0  0  0  0  0  0  0
   30.7580   28.6626   36.2442 H   0  0  0  0  0  0  0  0  0  0  0  0
   32.0992   29.2460   34.2468 H   0  0  0  0  0  0  0  0  0  0  0  0
   31.0713   28.9448   31.9899 H   0  0  0  0  0  0  0  0  0  0  0  0
   28.9436   27.8132   31.7669 H   0  0  0  0  0  0  0  0  0  0  0  0
   26.3612   25.9530   32.2111 H   0  0  0  0  0  0  0  0  0  0  0  0
   26.7155   27.6567   31.7926 H   0  0  0  0  0  0  0  0  0  0  0  0
   22.6352   27.1863   34.5031 H   0  0  0  0  0  0  0  0  0  0  0  0
   20.1264   25.4564   32.2992 H   0  0  0  0  0  0  0  0  0  0  0  0
   18.7454   24.9973   33.3746 H   0  0  0  0  0  0  0  0  0  0  0  0
   18.5377   26.3114   32.1443 H   0  0  0  0  0  0  0  0  0  0  0  0
   19.2201   25.2144   36.1989 H   0  0  0  0  0  0  0  0  0  0  0  0
   20.6562   24.1021   37.8396 H   0  0  0  0  0  0  0  0  0  0  0  0
   24.1855   23.7284   37.5754 H   0  0  0  0  0  0  0  0  0  0  0  0
   23.7752   24.9803   38.8252 H   0  0  0  0  0  0  0  0  0  0  0  0
   22.7756   23.4937   38.6642 H   0  0  0  0  0  0  0  0  0  0  0  0
  1  2  1  0
  2  3  2  0
  2  4  1  0
  4  5  2  0
  5  6  1  0
  6  7  2  0
  7  8  1  0
  8  9  2  0
  9 10  1  0
 10 11  2  0
 11 12  1  0
 12 13  2  0
 13 14  1  0
  1 15  1  0
 15 16  2  0
 16 17  1  0
 17 18  1  0
 18 19  2  0
 18 20  2  0
 18 21  1  0
 17 22  2  0
 22 23  1  0
 23 24  2  0
 24 25  1  0
 13  4  1  0
 24 15  1  0
 12  7  1  0
  1 26  1  0
  8 27  1  0
  9 28  1  0
 10 29  1  0
 11 30  1  0
 14 31  1  0
 14 32  1  0
 16 33  1  0
 21 34  1  0
 21 35  1  0
 21 36  1  0
 22 37  1  0
 23 38  1  0
 25 39  1  0
 25 40  1  0
 25 41  1  0
M  END
$$$$
confid_4
     RDKit          3D

 41 43  0  0  0  0  0  0  0  0999 V2000
   24.4800   26.1000   36.1300 N   0  0  0  0  0  0  0  0  0  0  0  0
   25.2500   26.2500   34.9900 C   0  0  0  0  0  0  0  0  0  0  0  0
   24.7400   25.7600   33.9900 O   0  0  0  0  0  0  0  0  0  0  0  0
   26.5900   26.8900   34.9600 C   0  0  0  0  0  0  0  0  0  0  0  0
   27.0600   27.2400   36.1600 N   0  0  0  0  0  0  0  0  0  0  0  0
   28.3000   27.7100   36.2400 N   0  0  0  0  0  0  0  0  0  0  0  0
   29.0500   27.9600   35.1500 C   0  0  0  0  0  0  0  0  0  0  0  0
   30.3400   28.4900   35.2600 C   0  0  0  0  0  0  0  0  0  0  0  0
   31.1100   28.8200   34.1400 C   0  0  0  0  0  0  0  0  0  0  0  0
   30.5200   28.6700   32.8800 C   0  0  0  0  0  0  0  0  0  0  0  0
   29.2900   28.0200   32.7700 C   0  0  0  0  0  0  0  0  0  0  0  0
   28.5200   27.7100   33.8900 C   0  0  0  0  0  0  0  0  0  0  0  0
   27.2700   27.0800   33.7600 C   0  0  0  0  0  0  0  0  0  0  0  0
   26.7500   26.8800   32.4900 N   0  0  0  0  0  0  0  0  0  0  0  0
   23.4698   25.0854   36.3109 C   0  0  0  0  0  0  0  0  0  0  0  0
   23.6953   23.7740   35.8528 C   0  0  0  0  0  0  0  0  0  0  0  0
   22.7395   22.7714   36.0538 C   0  0  0  0  0  0  0  0  0  0  0  0
   23.0462   21.1329   35.4876 S   0  0  0  0  0  6  0  0  0  0  0  0
   21.7447   20.4450   35.1842 O   0  0  0  0  0  0  0  0  0  0  0  0
   23.8732   21.1750   34.2333 O   0  0  0  0  0  0  0  0  0  0  0  0
   23.9180   20.2282   36.7457 C   0  0  0  0  0  0  0  0  0  0  0  0
   21.5593   23.0687   36.7420 C   0  0  0  0  0  0  0  0  0  0  0  0
   21.3278   24.3614   37.2148 C   0  0  0  0  0  0  0  0  0  0  0  0
   22.2707   25.3803   37.0003 C   0  0  0  0  0  0  0  0  0  0  0  0
   21.9960   26.7635   37.5249 C   0  0  0  0  0  0  0  0  0  0  0  0
   24.6366   26.7749   36.9118 H   0  0  0  0  0  0  0  0  0  0  0  0
   30.7580   28.6628   36.2441 H   0  0  0  0  0  0  0  0  0  0  0  0
   32.0984   29.2479   34.2470 H   0  0  0  0  0  0  0  0  0  0  0  0
   31.0669   28.9542   31.9901 H   0  0  0  0  0  0  0  0  0  0  0  0
   28.9258   27.8586   31.7656 H   0  0  0  0  0  0  0  0  0  0  0  0
   25.7672   27.1502   32.2658 H   0  0  0  0  0  0  0  0  0  0  0  0
   27.2968   26.3785   31.7554 H   0  0  0  0  0  0  0  0  0  0  0  0
   24.6274   23.5275   35.3599 H   0  0  0  0  0  0  0  0  0  0  0  0
   23.2994   20.1824   37.6656 H   0  0  0  0  0  0  0  0  0  0  0  0
   24.1238   19.1984   36.3882 H   0  0  0  0  0  0  0  0  0  0  0  0
   24.8766   20.7387   36.9722 H   0  0  0  0  0  0  0  0  0  0  0  0
   20.8206   22.2980   36.9217 H   0  0  0  0  0  0  0  0  0  0  0  0
   20.4089   24.5663   37.7503 H   0  0  0  0  0  0  0  0  0  0  0  0
   22.6339   26.9582   38.4125 H   0  0  0  0  0  0  0  0  0  0  0  0
   22.2130   27.5200   36.7414 H   0  0  0  0  0  0  0  0  0  0  0  0
   20.9322   26.8813   37.8220 H   0  0  0  0  0  0  0  0  0  0  0  0
  1  2  1  0
  2  3  2  0
  2  4  1  0
  4  5  2  0
  5  6  1  0
  6  7  2  0
  7  8  1  0
  8  9  2  0
  9 10  1  0
 10 11  2  0
 11 12  1  0
 12 13  2  0
 13 14  1  0
  1 15  1  0
 15 16  2  0
 16 17  1  0
 17 18  1  0
 18 19  2  0
 18 20  2  0
 18 21  1  0
 17 22  2  0
 22 23  1  0
 23 24  2  0
 24 25  1  0
 13  4  1  0
 24 15  1  0
 12  7  1  0
  1 26  1  0
  8 27  1  0
  9 28  1  0
 10 29  1  0
 11 30  1  0
 14 31  1  0
 14 32  1  0
 16 33  1  0
 21 34  1  0
 21 35  1  0
 21 36  1  0
 22 37  1  0
 23 38  1  0
 25 39  1  0
 25 40  1  0
 25 41  1  0
M  END
$$$$
confid_5
     RDKit          3D

 41 43  0  0  0  0  0  0  0  0999 V2000
   24.4800   26.1000   36.1300 N   0  0  0  0  0  0  0  0  0  0  0  0
   25.2500   26.2500   34.9900 C   0  0  0  0  0  0  0  0  0  0  0  0
   24.7400   25.7600   33.9900 O   0  0  0  0  0  0  0  0  0  0  0  0
   26.5900   26.8900   34.9600 C   0  0  0  0  0  0  0  0  0  0  0  0
   27.0600   27.2400   36.1600 N   0  0  0  0  0  0  0  0  0  0  0  0
   28.3000   27.7100   36.2400 N   0  0  0  0  0  0  0  0  0  0  0  0
   29.0500   27.9600   35.1500 C   0  0  0  0  0  0  0  0  0  0  0  0
   30.3400   28.4900   35.2600 C   0  0  0  0  0  0  0  0  0  0  0  0
   31.1100   28.8200   34.1400 C   0  0  0  0  0  0  0  0  0  0  0  0
   30.5200   28.6700   32.8800 C   0  0  0  0  0  0  0  0  0  0  0  0
   29.2900   28.0200   32.7700 C   0  0  0  0  0  0  0  0  0  0  0  0
   28.5200   27.7100   33.8900 C   0  0  0  0  0  0  0  0  0  0  0  0
   27.2700   27.0800   33.7600 C   0  0  0  0  0  0  0  0  0  0  0  0
   26.7500   26.8800   32.4900 N   0  0  0  0  0  0  0  0  0  0  0  0
   23.4659   25.0892   36.3087 C   0  0  0  0  0  0  0  0  0  0  0  0
   23.6884   23.7767   35.8526 C   0  0  0  0  0  0  0  0  0  0  0  0
   22.7283   22.7778   36.0513 C   0  0  0  0  0  0  0  0  0  0  0  0
   23.0296   21.1381   35.4862 S   0  0  0  0  0  6  0  0  0  0  0  0
   23.8641   21.1762   34.2366 O   0  0  0  0  0  0  0  0  0  0  0  0
   21.7260   20.4578   35.1746 O   0  0  0  0  0  0  0  0  0  0  0  0
   23.8888   20.2273   36.7486 C   0  0  0  0  0  0  0  0  0  0  0  0
   21.5469   23.0800   36.7355 C   0  0  0  0  0  0  0  0  0  0  0  0
   21.3186   24.3738   37.2066 C   0  0  0  0  0  0  0  0  0  0  0  0
   22.2657   25.3891   36.9938 C   0  0  0  0  0  0  0  0  0  0  0  0
   21.9941   26.7741   37.5151 C   0  0  0  0  0  0  0  0  0  0  0  0
   24.6374   26.7739   36.9124 H   0  0  0  0  0  0  0  0  0  0  0  0
   30.7580   28.6629   36.2441 H   0  0  0  0  0  0  0  0  0  0  0  0
   32.0983   29.2479   34.2470 H   0  0  0  0  0  0  0  0  0  0  0  0
   31.0669   28.9543   31.9901 H   0  0  0  0  0  0  0  0  0  0  0  0
   28.9258   27.8587   31.7656 H   0  0  0  0  0  0  0  0  0  0  0  0
   27.2968   26.3786   31.7554 H   0  0  0  0  0  0  0  0  0  0  0  0
   25.7672   27.1501   32.2659 H   0  0  0  0  0  0  0  0  0  0  0  0
   24.6212   23.5268   35.3630 H   0  0  0  0  0  0  0  0  0  0  0  0
   24.0821   19.1936   36.3951 H   0  0  0  0  0  0  0  0  0  0  0  0
   24.8536   20.7266   36.9742 H   0  0  0  0  0  0  0  0  0  0  0  0
   23.2686   20.1930   37.6679 H   0  0  0  0  0  0  0  0  0  0  0  0
   20.8047   22.3122   36.9131 H   0  0  0  0  0  0  0  0  0  0  0  0
   20.3987   24.5827   37.7387 H   0  0  0  0  0  0  0  0  0  0  0  0
   20.9297   26.8965   37.8088 H   0  0  0  0  0  0  0  0  0  0  0  0
   22.2166   27.5283   36.7310 H   0  0  0  0  0  0  0  0  0  0  0  0
   22.6298   26.9682   38.4041 H   0  0  0  0  0  0  0  0  0  0  0  0
  1  2  1  0
  2  3  2  0
  2  4  1  0
  4  5  2  0
  5  6  1  0
  6  7  2  0
  7  8  1  0
  8  9  2  0
  9 10  1  0
 10 11  2  0
 11 12  1  0
 12 13  2  0
 13 14  1  0
  1 15  1  0
 15 16  2  0
 16 17  1  0
 17 18  1  0
 18 19  2  0
 18 20  2  0
 18 21  1  0
 17 22  2  0
 22 23  1  0
 23 24  2  0
 24 25  1  0
 13  4  1  0
 24 15  1  0
 12  7  1  0
  1 26  1  0
  8 27  1  0
  9 28  1  0
 10 29  1  0
 11 30  1  0
 14 31  1  0
 14 32  1  0
 16 33  1  0
 21 34  1  0
 21 35  1  0
 21 36  1  0
 22 37  1  0
 23 38  1  0
 25 39  1  0
 25 40  1  0
 25 41  1  0
M  END
$$$$
confid_6
     RDKit          3D

 41 43  0  0  0  0  0  0  0  0999 V2000
   24.4800   26.1000   36.1300 N   0  0  0  0  0  0  0  0  0  0  0  0
   25.2500   26.2500   34.9900 C   0  0  0  0  0  0  0  0  0  0  0  0
   24.7400   25.7600   33.9900 O   0  0  0  0  0  0  0  0  0  0  0  0
   26.5900   26.8900   34.9600 C   0  0  0  0  0  0  0  0  0  0  0  0
   27.0600   27.2400   36.1600 N   0  0  0  0  0  0  0  0  0  0  0  0
   28.3000   27.7100   36.2400 N   0  0  0  0  0  0  0  0  0  0  0  0
   29.0500   27.9600   35.1500 C   0  0  0  0  0  0  0  0  0  0  0  0
   30.3400   28.4900   35.2600 C   0  0  0  0  0  0  0  0  0  0  0  0
   31.1100   28.8200   34.1400 C   0  0  0  0  0  0  0  0  0  0  0  0
   30.5200   28.6700   32.8800 C   0  0  0  0  0  0  0  0  0  0  0  0
   29.2900   28.0200   32.7700 C   0  0  0  0  0  0  0  0  0  0  0  0
   28.5200   27.7100   33.8900 C   0  0  0  0  0  0  0  0  0  0  0  0
   27.2700   27.0800   33.7600 C   0  0  0  0  0  0  0  0  0  0  0  0
   26.7500   26.8800   32.4900 N   0  0  0  0  0  0  0  0  0  0  0  0
   23.0457   25.9402   36.1316 C   0  0  0  0  0  0  0  0  0  0  0  0
   22.2515   26.6745   35.2313 C   0  0  0  0  0  0  0  0  0  0  0  0
   20.8568   26.5586   35.2484 C   0  0  0  0  0  0  0  0  0  0  0  0
   19.8821   27.4681   34.0985 S   0  0  0  0  0  6  0  0  0  0  0  0
   20.5299   28.7957   33.8209 O   0  0  0  0  0  0  0  0  0  0  0  0
   18.5117   27.7098   34.6667 O   0  0  0  0  0  0  0  0  0  0  0  0
   19.7428   26.5450   32.5853 C   0  0  0  0  0  0  0  0  0  0  0  0
   20.2447   25.7041   36.1704 C   0  0  0  0  0  0  0  0  0  0  0  0
   21.0183   24.9804   37.0791 C   0  0  0  0  0  0  0  0  0  0  0  0
   22.4189   25.0862   37.0686 C   0  0  0  0  0  0  0  0  0  0  0  0
   23.2273   24.2944   38.0604 C   0  0  0  0  0  0  0  0  0  0  0  0
   24.9683   26.1032   37.0531 H   0  0  0  0  0  0  0  0  0  0  0  0
   30.7582   28.6623   36.2441 H   0  0  0  0  0  0  0  0  0  0  0  0
   32.0994   29.2455   34.2469 H   0  0  0  0  0  0  0  0  0  0  0  0
   31.0716   28.9442   31.9898 H   0  0  0  0  0  0  0  0  0  0  0  0
   28.9437   27.8129   31.7669 H   0  0  0  0  0  0  0  0  0  0  0  0
   26.7152   27.6568   31.7928 H   0  0  0  0  0  0  0  0  0  0  0  0
   26.3611   25.9531   32.2111 H   0  0  0  0  0  0  0  0  0  0  0  0
   22.7188   27.3509   34.5268 H   0  0  0  0  0  0  0  0  0  0  0  0
   19.1326   27.1164   31.8559 H   0  0  0  0  0  0  0  0  0  0  0  0
   20.7539   26.3700   32.1634 H   0  0  0  0  0  0  0  0  0  0  0  0
   19.2556   25.5693   32.7898 H   0  0  0  0  0  0  0  0  0  0  0  0
   19.1675   25.5983   36.1890 H   0  0  0  0  0  0  0  0  0  0  0  0
   20.5210   24.3322   37.7902 H   0  0  0  0  0  0  0  0  0  0  0  0
   24.0657   23.7795   37.5454 H   0  0  0  0  0  0  0  0  0  0  0  0
   22.6104   23.5181   38.5613 H   0  0  0  0  0  0  0  0  0  0  0  0
   23.6343   24.9754   38.8367 H   0  0  0  0  0  0  0  0  0  0  0  0
  1  2  1  0
  2  3  2  0
  2  4  1  0
  4  5  2  0
  5  6  1  0
  6  7  2  0
  7  8  1  0
  8  9  2  0
  9 10  1  0
 10 11  2  0
 11 12  1  0
 12 13  2  0
 13 14  1  0
  1 15  1  0
 15 16  2  0
 16 17  1  0
 17 18  1  0
 18 19  2  0
 18 20  2  0
 18 21  1  0
 17 22  2  0
 22 23  1  0
 23 24  2  0
 24 25  1  0
 13  4  1  0
 24 15  1  0
 12  7  1  0
  1 26  1  0
  8 27  1  0
  9 28  1  0
 10 29  1  0
 11 30  1  0
 14 31  1  0
 14 32  1  0
 16 33  1  0
 21 34  1  0
 21 35  1  0
 21 36  1  0
 22 37  1  0
 23 38  1  0
 25 39  1  0
 25 40  1  0
 25 41  1  0
M  END
$$$$
confid_7
     RDKit          3D

 41 43  0  0  0  0  0  0  0  0999 V2000
   24.4800   26.1000   36.1300 N   0  0  0  0  0  0  0  0  0  0  0  0
   25.2500   26.2500   34.9900 C   0  0  0  0  0  0  0  0  0  0  0  0
   24.7400   25.7600   33.9900 O   0  0  0  0  0  0  0  0  0  0  0  0
   26.5900   26.8900   34.9600 C   0  0  0  0  0  0  0  0  0  0  0  0
   27.0600   27.2400   36.1600 N   0  0  0  0  0  0  0  0  0  0  0  0
   28.3000   27.7100   36.2400 N   0  0  0  0  0  0  0  0  0  0  0  0
   29.0500   27.9600   35.1500 C   0  0  0  0  0  0  0  0  0  0  0  0
   30.3400   28.4900   35.2600 C   0  0  0  0  0  0  0  0  0  0  0  0
   31.1100   28.8200   34.1400 C   0  0  0  0  0  0  0  0  0  0  0  0
   30.5200   28.6700   32.8800 C   0  0  0  0  0  0  0  0  0  0  0  0
   29.2900   28.0200   32.7700 C   0  0  0  0  0  0  0  0  0  0  0  0
   28.5200   27.7100   33.8900 C   0  0  0  0  0  0  0  0  0  0  0  0
   27.2700   27.0800   33.7600 C   0  0  0  0  0  0  0  0  0  0  0  0
   26.7500   26.8800   32.4900 N   0  0  0  0  0  0  0  0  0  0  0  0
   23.0414   25.9787   36.1361 C   0  0  0  0  0  0  0  0  0  0  0  0
   22.2644   26.7197   35.2255 C   0  0  0  0  0  0  0  0  0  0  0  0
   20.8663   26.6553   35.2575 C   0  0  0  0  0  0  0  0  0  0  0  0
   19.9158   27.5861   34.1013 S   0  0  0  0  0  6  0  0  0  0  0  0
   20.0194   26.9511   32.7438 O   0  0  0  0  0  0  0  0  0  0  0  0
   18.4733   27.6133   34.5226 O   0  0  0  0  0  0  0  0  0  0  0  0
   20.5062   29.2640   34.0252 C   0  0  0  0  0  0  0  0  0  0  0  0
   20.2338   25.8467   36.2076 C   0  0  0  0  0  0  0  0  0  0  0  0
   20.9902   25.1152   37.1243 C   0  0  0  0  0  0  0  0  0  0  0  0
   22.3934   25.1659   37.0954 C   0  0  0  0  0  0  0  0  0  0  0  0
   23.1793   24.3711   38.1028 C   0  0  0  0  0  0  0  0  0  0  0  0
   24.9717   26.0886   37.0511 H   0  0  0  0  0  0  0  0  0  0  0  0
   30.7582   28.6632   36.2438 H   0  0  0  0  0  0  0  0  0  0  0  0
   32.0982   29.2482   34.2473 H   0  0  0  0  0  0  0  0  0  0  0  0
   31.0668   28.9544   31.9900 H   0  0  0  0  0  0  0  0  0  0  0  0
   28.9256   27.8590   31.7656 H   0  0  0  0  0  0  0  0  0  0  0  0
   27.2969   26.3787   31.7554 H   0  0  0  0  0  0  0  0  0  0  0  0
   25.7669   27.1494   32.2661 H   0  0  0  0  0  0  0  0  0  0  0  0
   22.7489   27.3651   34.5049 H   0  0  0  0  0  0  0  0  0  0  0  0
   21.5213   29.2848   33.5787 H   0  0  0  0  0  0  0  0  0  0  0  0
   19.8211   29.8684   33.3952 H   0  0  0  0  0  0  0  0  0  0  0  0
   20.5427   29.6943   35.0475 H   0  0  0  0  0  0  0  0  0  0  0  0
   19.1541   25.7835   36.2449 H   0  0  0  0  0  0  0  0  0  0  0  0
   20.4774   24.5053   37.8583 H   0  0  0  0  0  0  0  0  0  0  0  0
   23.5709   25.0503   38.8882 H   0  0  0  0  0  0  0  0  0  0  0  0
   24.0272   23.8511   37.6080 H   0  0  0  0  0  0  0  0  0  0  0  0
   22.5486   23.5960   38.5878 H   0  0  0  0  0  0  0  0  0  0  0  0
  1  2  1  0
  2  3  2  0
  2  4  1  0
  4  5  2  0
  5  6  1  0
  6  7  2  0
  7  8  1  0
  8  9  2  0
  9 10  1  0
 10 11  2  0
 11 12  1  0
 12 13  2  0
 13 14  1  0
  1 15  1  0
 15 16  2  0
 16 17  1  0
 17 18  1  0
 18 19  2  0
 18 20  2  0
 18 21  1  0
 17 22  2  0
 22 23  1  0
 23 24  2  0
 24 25  1  0
 13  4  1  0
 24 15  1  0
 12  7  1  0
  1 26  1  0
  8 27  1  0
  9 28  1  0
 10 29  1  0
 11 30  1  0
 14 31  1  0
 14 32  1  0
 16 33  1  0
 21 34  1  0
 21 35  1  0
 21 36  1  0
 22 37  1  0
 23 38  1  0
 25 39  1  0
 25 40  1  0
 25 41  1  0
M  END
$$$$
confid_8
     RDKit          3D

 41 43  0  0  0  0  0  0  0  0999 V2000
   24.4800   26.1000   36.1300 N   0  0  0  0  0  0  0  0  0  0  0  0
   25.2500   26.2500   34.9900 C   0  0  0  0  0  0  0  0  0  0  0  0
   24.7400   25.7600   33.9900 O   0  0  0  0  0  0  0  0  0  0  0  0
   26.5900   26.8900   34.9600 C   0  0  0  0  0  0  0  0  0  0  0  0
   27.0600   27.2400   36.1600 N   0  0  0  0  0  0  0  0  0  0  0  0
   28.3000   27.7100   36.2400 N   0  0  0  0  0  0  0  0  0  0  0  0
   29.0500   27.9600   35.1500 C   0  0  0  0  0  0  0  0  0  0  0  0
   30.3400   28.4900   35.2600 C   0  0  0  0  0  0  0  0  0  0  0  0
   31.1100   28.8200   34.1400 C   0  0  0  0  0  0  0  0  0  0  0  0
   30.5200   28.6700   32.8800 C   0  0  0  0  0  0  0  0  0  0  0  0
   29.2900   28.0200   32.7700 C   0  0  0  0  0  0  0  0  0  0  0  0
   28.5200   27.7100   33.8900 C   0  0  0  0  0  0  0  0  0  0  0  0
   27.2700   27.0800   33.7600 C   0  0  0  0  0  0  0  0  0  0  0  0
   26.7500   26.8800   32.4900 N   0  0  0  0  0  0  0  0  0  0  0  0
   23.4881   25.0694   36.3199 C   0  0  0  0  0  0  0  0  0  0  0  0
   23.7342   23.7598   35.8675 C   0  0  0  0  0  0  0  0  0  0  0  0
   22.7986   22.7412   36.0814 C   0  0  0  0  0  0  0  0  0  0  0  0
   23.1136   21.1145   35.4863 S   0  0  0  0  0  6  0  0  0  0  0  0
   22.3918   20.1086   36.3387 O   0  0  0  0  0  0  0  0  0  0  0  0
   24.5878   20.8273   35.5457 O   0  0  0  0  0  0  0  0  0  0  0  0
   22.5485   20.9835   33.8056 C   0  0  0  0  0  0  0  0  0  0  0  0
   21.6063   23.0268   36.7536 C   0  0  0  0  0  0  0  0  0  0  0  0
   21.3548   24.3176   37.2209 C   0  0  0  0  0  0  0  0  0  0  0  0
   22.2846   25.3486   37.0077 C   0  0  0  0  0  0  0  0  0  0  0  0
   21.9872   26.7304   37.5231 C   0  0  0  0  0  0  0  0  0  0  0  0
   24.6267   26.7834   36.9062 H   0  0  0  0  0  0  0  0  0  0  0  0
   30.7580   28.6629   36.2441 H   0  0  0  0  0  0  0  0  0  0  0  0
   32.0983   29.2480   34.2470 H   0  0  0  0  0  0  0  0  0  0  0  0
   31.0668   28.9543   31.9901 H   0  0  0  0  0  0  0  0  0  0  0  0
   28.9258   27.8587   31.7656 H   0  0  0  0  0  0  0  0  0  0  0  0
   27.2968   26.3785   31.7554 H   0  0  0  0  0  0  0  0  0  0  0  0
   25.7672   27.1500   32.2659 H   0  0  0  0  0  0  0  0  0  0  0  0
   24.6637   23.5291   35.3625 H   0  0  0  0  0  0  0  0  0  0  0  0
   21.4573   21.1802   33.7654 H   0  0  0  0  0  0  0  0  0  0  0  0
   22.7540   19.9627   33.4227 H   0  0  0  0  0  0  0  0  0  0  0  0
   23.0800   21.7273   33.1767 H   0  0  0  0  0  0  0  0  0  0  0  0
   20.8704   22.2504   36.9187 H   0  0  0  0  0  0  0  0  0  0  0  0
   20.4282   24.5127   37.7467 H   0  0  0  0  0  0  0  0  0  0  0  0
   22.6265   26.9445   38.4048 H   0  0  0  0  0  0  0  0  0  0  0  0
   22.1855   27.4843   36.7322 H   0  0  0  0  0  0  0  0  0  0  0  0
   20.9234   26.8312   37.8267 H   0  0  0  0  0  0  0  0  0  0  0  0
  1  2  1  0
  2  3  2  0
  2  4  1  0
  4  5  2  0
  5  6  1  0
  6  7  2  0
  7  8  1  0
  8  9  2  0
  9 10  1  0
 10 11  2  0
 11 12  1  0
 12 13  2  0
 13 14  1  0
  1 15  1  0
 15 16  2  0
 16 17  1  0
 17 18  1  0
 18 19  2  0
 18 20  2  0
 18 21  1  0
 17 22  2  0
 22 23  1  0
 23 24  2  0
 24 25  1  0
 13  4  1  0
 24 15  1  0
 12  7  1  0
  1 26  1  0
  8 27  1  0
  9 28  1  0
 10 29  1  0
 11 30  1  0
 14 31  1  0
 14 32  1  0
 16 33  1  0
 21 34  1  0
 21 35  1  0
 21 36  1  0
 22 37  1  0
 23 38  1  0
 25 39  1  0
 25 40  1  0
 25 41  1  0
M  END
$$$$
confid_9
     RDKit          3D

 41 43  0  0  0  0  0  0  0  0999 V2000
   24.4800   26.1000   36.1300 N   0  0  0  0  0  0  0  0  0  0  0  0
   25.2500   26.2500   34.9900 C   0  0  0  0  0  0  0  0  0  0  0  0
   24.7400   25.7600   33.9900 O   0  0  0  0  0  0  0  0  0  0  0  0
   26.5900   26.8900   34.9600 C   0  0  0  0  0  0  0  0  0  0  0  0
   27.0600   27.2400   36.1600 N   0  0  0  0  0  0  0  0  0  0  0  0
   28.3000   27.7100   36.2400 N   0  0  0  0  0  0  0  0  0  0  0  0
   29.0500   27.9600   35.1500 C   0  0  0  0  0  0  0  0  0  0  0  0
   30.3400   28.4900   35.2600 C   0  0  0  0  0  0  0  0  0  0  0  0
   31.1100   28.8200   34.1400 C   0  0  0  0  0  0  0  0  0  0  0  0
   30.5200   28.6700   32.8800 C   0  0  0  0  0  0  0  0  0  0  0  0
   29.2900   28.0200   32.7700 C   0  0  0  0  0  0  0  0  0  0  0  0
   28.5200   27.7100   33.8900 C   0  0  0  0  0  0  0  0  0  0  0  0
   27.2700   27.0800   33.7600 C   0  0  0  0  0  0  0  0  0  0  0  0
   26.7500   26.8800   32.4900 N   0  0  0  0  0  0  0  0  0  0  0  0
   23.1131   25.6375   36.1495 C   0  0  0  0  0  0  0  0  0  0  0  0
   22.1721   26.1694   35.2486 C   0  0  0  0  0  0  0  0  0  0  0  0
   20.8379   25.7414   35.2744 C   0  0  0  0  0  0  0  0  0  0  0  0
   19.6593   26.4072   34.1480 S   0  0  0  0  0  6  0  0  0  0  0  0
   18.4377   26.8429   34.9053 O   0  0  0  0  0  0  0  0  0  0  0  0
   20.2375   27.5970   33.4356 O   0  0  0  0  0  0  0  0  0  0  0  0
   19.2104   25.1782   32.9461 C   0  0  0  0  0  0  0  0  0  0  0  0
   20.4376   24.7801   36.2070 C   0  0  0  0  0  0  0  0  0  0  0  0
   21.3551   24.2636   37.1234 C   0  0  0  0  0  0  0  0  0  0  0  0
   22.6938   24.6884   37.1105 C   0  0  0  0  0  0  0  0  0  0  0  0
   23.6622   24.1180   38.1117 C   0  0  0  0  0  0  0  0  0  0  0  0
   24.9333   26.2816   37.0541 H   0  0  0  0  0  0  0  0  0  0  0  0
   30.7579   28.6632   36.2443 H   0  0  0  0  0  0  0  0  0  0  0  0
   32.0981   29.2482   34.2470 H   0  0  0  0  0  0  0  0  0  0  0  0
   31.0667   28.9545   31.9900 H   0  0  0  0  0  0  0  0  0  0  0  0
   28.9258   27.8591   31.7655 H   0  0  0  0  0  0  0  0  0  0  0  0
   27.2970   26.3791   31.7552 H   0  0  0  0  0  0  0  0  0  0  0  0
   25.7668   27.1493   32.2661 H   0  0  0  0  0  0  0  0  0  0  0  0
   22.4784   26.9302   34.5428 H   0  0  0  0  0  0  0  0  0  0  0  0
   18.8283   24.2733   33.4625 H   0  0  0  0  0  0  0  0  0  0  0  0
   18.4235   25.5814   32.2770 H   0  0  0  0  0  0  0  0  0  0  0  0
   20.1040   24.9081   32.3446 H   0  0  0  0  0  0  0  0  0  0  0  0
   19.4111   24.4371   36.2292 H   0  0  0  0  0  0  0  0  0  0  0  0
   21.0186   23.5274   37.8423 H   0  0  0  0  0  0  0  0  0  0  0  0
   23.9557   24.9086   38.8338 H   0  0  0  0  0  0  0  0  0  0  0  0
   24.5685   23.7419   37.5923 H   0  0  0  0  0  0  0  0  0  0  0  0
   23.2151   23.2746   38.6789 H   0  0  0  0  0  0  0  0  0  0  0  0
  1  2  1  0
  2  3  2  0
  2  4  1  0
  4  5  2  0
  5  6  1  0
  6  7  2  0
  7  8  1  0
  8  9  2  0
  9 10  1  0
 10 11  2  0
 11 12  1  0
 12 13  2  0
 13 14  1  0
  1 15  1  0
 15 16  2  0
 16 17  1  0
 17 18  1  0
 18 19  2  0
 18 20  2  0
 18 21  1  0
 17 22  2  0
 22 23  1  0
 23 24  2  0
 24 25  1  0
 13  4  1  0
 24 15  1  0
 12  7  1  0
  1 26  1  0
  8 27  1  0
  9 28  1  0
 10 29  1  0
 11 30  1  0
 14 31  1  0
 14 32  1  0
 16 33  1  0
 21 34  1  0
 21 35  1  0
 21 36  1  0
 22 37  1  0
 23 38  1  0
 25 39  1  0
 25 40  1  0
 25 41  1  0
M  END
$$$$
confid_10
     RDKit          3D

 41 43  0  0  0  0  0  0  0  0999 V2000
   24.4800   26.1000   36.1300 N   0  0  0  0  0  0  0  0  0  0  0  0
   25.2500   26.2500   34.9900 C   0  0  0  0  0  0  0  0  0  0  0  0
   24.7400   25.7600   33.9900 O   0  0  0  0  0  0  0  0  0  0  0  0
   26.5900   26.8900   34.9600 C   0  0  0  0  0  0  0  0  0  0  0  0
   27.0600   27.2400   36.1600 N   0  0  0  0  0  0  0  0  0  0  0  0
   28.3000   27.7100   36.2400 N   0  0  0  0  0  0  0  0  0  0  0  0
   29.0500   27.9600   35.1500 C   0  0  0  0  0  0  0  0  0  0  0  0
   30.3400   28.4900   35.2600 C   0  0  0  0  0  0  0  0  0  0  0  0
   31.1100   28.8200   34.1400 C   0  0  0  0  0  0  0  0  0  0  0  0
   30.5200   28.6700   32.8800 C   0  0  0  0  0  0  0  0  0  0  0  0
   29.2900   28.0200   32.7700 C   0  0  0  0  0  0  0  0  0  0  0  0
   28.5200   27.7100   33.8900 C   0  0  0  0  0  0  0  0  0  0  0  0
   27.2700   27.0800   33.7600 C   0  0  0  0  0  0  0  0  0  0  0  0
   26.7500   26.8800   32.4900 N   0  0  0  0  0  0  0  0  0  0  0  0
   23.4745   25.0813   36.3133 C   0  0  0  0  0  0  0  0  0  0  0  0
   23.7057   23.7701   35.8578 C   0  0  0  0  0  0  0  0  0  0  0  0
   22.7561   22.7629   36.0645 C   0  0  0  0  0  0  0  0  0  0  0  0
   23.0558   21.1345   35.4661 S   0  0  0  0  0  6  0  0  0  0  0  0
   24.5173   20.8082   35.5944 O   0  0  0  0  0  0  0  0  0  0  0  0
   22.2669   20.1387   36.2695 O   0  0  0  0  0  0  0  0  0  0  0  0
   22.5700   21.0361   33.7586 C   0  0  0  0  0  0  0  0  0  0  0  0
   21.5646   23.0618   36.7327 C   0  0  0  0  0  0  0  0  0  0  0  0
   21.3282   24.3542   37.2038 C   0  0  0  0  0  0  0  0  0  0  0  0
   22.2724   25.3736   36.9983 C   0  0  0  0  0  0  0  0  0  0  0  0
   21.9918   26.7572   37.5187 C   0  0  0  0  0  0  0  0  0  0  0  0
   24.6333   26.7778   36.9098 H   0  0  0  0  0  0  0  0  0  0  0  0
   30.7582   28.6623   36.2441 H   0  0  0  0  0  0  0  0  0  0  0  0
   32.0994   29.2454   34.2469 H   0  0  0  0  0  0  0  0  0  0  0  0
   31.0716   28.9442   31.9898 H   0  0  0  0  0  0  0  0  0  0  0  0
   28.9437   27.8128   31.7669 H   0  0  0  0  0  0  0  0  0  0  0  0
   26.3614   25.9529   32.2112 H   0  0  0  0  0  0  0  0  0  0  0  0
   26.7157   27.6566   31.7925 H   0  0  0  0  0  0  0  0  0  0  0  0
   24.6344   23.5286   35.3563 H   0  0  0  0  0  0  0  0  0  0  0  0
   23.1560   21.7669   33.1637 H   0  0  0  0  0  0  0  0  0  0  0  0
   21.4891   21.2694   33.6667 H   0  0  0  0  0  0  0  0  0  0  0  0
   22.7603   20.0122   33.3761 H   0  0  0  0  0  0  0  0  0  0  0  0
   20.8176   22.2948   36.8923 H   0  0  0  0  0  0  0  0  0  0  0  0
   20.4023   24.5595   37.7270 H   0  0  0  0  0  0  0  0  0  0  0  0
   22.6331   26.9599   38.4017 H   0  0  0  0  0  0  0  0  0  0  0  0
   22.2005   27.5112   36.7305 H   0  0  0  0  0  0  0  0  0  0  0  0
   20.9290   26.8704   37.8217 H   0  0  0  0  0  0  0  0  0  0  0  0
  1  2  1  0
  2  3  2  0
  2  4  1  0
  4  5  2  0
  5  6  1  0
  6  7  2  0
  7  8  1  0
  8  9  2  0
  9 10  1  0
 10 11  2  0
 11 12  1  0
 12 13  2  0
 13 14  1  0
  1 15  1  0
 15 16  2  0
 16 17  1  0
 17 18  1  0
 18 19  2  0
 18 20  2  0
 18 21  1  0
 17 22  2  0
 22 23  1  0
 23 24  2  0
 24 25  1  0
 13  4  1  0
 24 15  1  0
 12  7  1  0
  1 26  1  0
  8 27  1  0
  9 28  1  0
 10 29  1  0
 11 30  1  0
 14 31  1  0
 14 32  1  0
 16 33  1  0
 21 34  1  0
 21 35  1  0
 21 36  1  0
 22 37  1  0
 23 38  1  0
 25 39  1  0
 25 40  1  0
 25 41  1  0
M  END
$$$$
