confid_0
     RDKit          3D

 42 45  0  0  0  0  0  0  0  0999 V2000
   24.6900   26.1200   35.5300 N   0  0  0  0  0  0  0  0  0  0  0  0
   25.6600   25.6700   34.6600 C   0  0  0  0  0  0  0  0  0  0  0  0
   25.2400   25.0100   33.7200 O   0  0  0  0  0  0  0  0  0  0  0  0
   27.0300   26.2200   34.8800 C   0  0  0  0  0  0  0  0  0  0  0  0
   27.3500   26.7300   36.0700 N   0  0  0  0  0  0  0  0  0  0  0  0
   28.5700   27.1800   36.3300 N   0  0  0  0  0  0  0  0  0  0  0  0
   29.5300   27.1100   35.3900 C   0  0  0  0  0  0  0  0  0  0  0  0
   30.8300   27.5700   35.6500 C   0  0  0  0  0  0  0  0  0  0  0  0
   31.8500   27.5400   34.6900 C   0  0  0  0  0  0  0  0  0  0  0  0
   31.5100   27.1200   33.4000 C   0  0  0  0  0  0  0  0  0  0  0  0
   30.2200   26.6300   33.1100 C   0  0  0  0  0  0  0  0  0  0  0  0
   29.2400   26.6600   34.1000 C   0  0  0  0  0  0  0  0  0  0  0  0
   27.9300   26.2600   33.8100 C   0  0  0  0  0  0  0  0  0  0  0  0
   27.5200   25.7100   32.6100 N   0  0  0  0  0  0  0  0  0  0  0  0
   23.4993   25.3782   35.8589 C   0  0  0  0  0  0  0  0  0  0  0  0
   23.3721   24.0659   35.4827 N   0  0  0  0  0  0  0  0  0  0  0  0
   22.2708   23.3228   35.7888 C   0  0  0  0  0  0  0  0  0  0  0  0
   21.2425   23.9178   36.5136 C   0  0  0  0  0  0  0  0  0  0  0  0
   19.9636   23.3178   36.9614 C   0  0  0  0  0  0  0  0  0  0  0  0
   19.3157   24.4240   37.6703 N   0  0  0  0  0  0  0  0  0  0  0  0
   18.0273   24.3400   38.2992 C   0  0  0  0  0  0  0  0  0  0  0  0
   17.5498   25.3477   38.8873 O   0  0  0  0  0  0  0  0  0  0  0  0
   17.2374   23.0688   38.2680 C   0  0  0  0  0  0  0  0  0  0  0  0
   20.1337   25.6387   37.6686 C   0  0  0  0  0  0  0  0  0  0  0  0
   21.3412   25.2269   36.9111 C   0  0  0  0  0  0  0  0  0  0  0  0
   22.4661   25.9897   36.6001 C   0  0  0  0  0  0  0  0  0  0  0  0
   22.5515   27.2838   36.9994 F   0  0  0  0  0  0  0  0  0  0  0  0
   24.8260   27.0472   35.9941 H   0  0  0  0  0  0  0  0  0  0  0  0
   31.0673   27.9414   36.6394 H   0  0  0  0  0  0  0  0  0  0  0  0
   32.8486   27.8872   34.9214 H   0  0  0  0  0  0  0  0  0  0  0  0
   32.2655   27.1208   32.6249 H   0  0  0  0  0  0  0  0  0  0  0  0
   30.0114   26.2784   32.1078 H   0  0  0  0  0  0  0  0  0  0  0  0
   27.3407   24.6833   32.5418 H   0  0  0  0  0  0  0  0  0  0  0  0
   27.6979   26.2228   31.7183 H   0  0  0  0  0  0  0  0  0  0  0  0
   22.2034   22.2901   35.4738 H   0  0  0  0  0  0  0  0  0  0  0  0
   20.1524   22.4690   37.6524 H   0  0  0  0  0  0  0  0  0  0  0  0
   19.3537   23.0037   36.0879 H   0  0  0  0  0  0  0  0  0  0  0  0
   17.8142   22.2578   38.7591 H   0  0  0  0  0  0  0  0  0  0  0  0
   16.2728   23.1950   38.8042 H   0  0  0  0  0  0  0  0  0  0  0  0
   17.0255   22.7859   37.2160 H   0  0  0  0  0  0  0  0  0  0  0  0
   20.4028   25.9271   38.7071 H   0  0  0  0  0  0  0  0  0  0  0  0
   19.6047   26.4625   37.1437 H   0  0  0  0  0  0  0  0  0  0  0  0
  1  2  1  0
  2  3  2  0
  2  4  1  0
  4  5  2  0
  5  6  1  0
  6  7  2  0
  7  8  1  0
  8  9  2  0
  9 10  1  0
 10 11  2  0
 11 12  1  0
 12 13  2  0
 13 14  1  0
  1 15  1  0
 15 16  2  0
 16 17  1  0
 17 18  2  0
 18 19  1  0
 19 20  1  0
 20 21  1  0
 21 22  2  0
 21 23  1  0
 20 24  1  0
 24 25  1  0
 25 26  2  0
 26 27  1  0
 13  4  1  0
 26 15  1  0
 12  7  1  0
 25 18  1  0
  1 28  1  0
  8 29  1  0
  9 30  1  0
 10 31  1  0
 11 32  1  0
 14 33  1  0
 14 34  1  0
 17 35  1  0
 19 36  1  0
 19 37  1  0
 23 38  1  0
 23 39  1  0
 23 40  1  0
 24 41  1  0
 24 42  1  0
M  END
$$$$
confid_1
     RDKit          3D

 42 45  0  0  0  0  0  0  0  0999 V2000
   24.6900   26.1200   35.5300 N   0  0  0  0  0  0  0  0  0  0  0  0
   25.6600   25.6700   34.6600 C   0  0  0  0  0  0  0  0  0  0  0  0
   25.2400   25.0100   33.7200 O   0  0  0  0  0  0  0  0  0  0  0  0
   27.0300   26.2200   34.8800 C   0  0  0  0  0  0  0  0  0  0  0  0
   27.3500   26.7300   36.0700 N   0  0  0  0  0  0  0  0  0  0  0  0
   28.5700   27.1800   36.3300 N   0  0  0  0  0  0  0  0  0  0  0  0
   29.5300   27.1100   35.3900 C   0  0  0  0  0  0  0  0  0  0  0  0
   30.8300   27.5700   35.6500 C   0  0  0  0  0  0  0  0  0  0  0  0
   31.8500   27.5400   34.6900 C   0  0  0  0  0  0  0  0  0  0  0  0
   31.5100   27.1200   33.4000 C   0  0  0  0  0  0  0  0  0  0  0  0
   30.2200   26.6300   33.1100 C   0  0  0  0  0  0  0  0  0  0  0  0
   29.2400   26.6600   34.1000 C   0  0  0  0  0  0  0  0  0  0  0  0
   27.9300   26.2600   33.8100 C   0  0  0  0  0  0  0  0  0  0  0  0
   27.5200   25.7100   32.6100 N   0  0  0  0  0  0  0  0  0  0  0  0
   23.4984   25.3791   35.8573 C   0  0  0  0  0  0  0  0  0  0  0  0
   23.3734   24.0651   35.4861 N   0  0  0  0  0  0  0  0  0  0  0  0
   22.2713   23.3228   35.7912 C   0  0  0  0  0  0  0  0  0  0  0  0
   21.2397   23.9205   36.5090 C   0  0  0  0  0  0  0  0  0  0  0  0
   19.9587   23.3222   36.9534 C   0  0  0  0  0  0  0  0  0  0  0  0
   19.3068   24.4306   37.6533 N   0  0  0  0  0  0  0  0  0  0  0  0
   18.0124   24.3257   38.2666 C   0  0  0  0  0  0  0  0  0  0  0  0
   17.3807   23.2360   38.2151 O   0  0  0  0  0  0  0  0  0  0  0  0
   17.3968   25.4956   38.9689 C   0  0  0  0  0  0  0  0  0  0  0  0
   20.1249   25.6463   37.6508 C   0  0  0  0  0  0  0  0  0  0  0  0
   21.3361   25.2314   36.9011 C   0  0  0  0  0  0  0  0  0  0  0  0
   22.4620   25.9932   36.5916 C   0  0  0  0  0  0  0  0  0  0  0  0
   22.5450   27.2891   36.9855 F   0  0  0  0  0  0  0  0  0  0  0  0
   24.8259   27.0472   35.9940 H   0  0  0  0  0  0  0  0  0  0  0  0
   31.0673   27.9414   36.6394 H   0  0  0  0  0  0  0  0  0  0  0  0
   32.8486   27.8873   34.9214 H   0  0  0  0  0  0  0  0  0  0  0  0
   32.2655   27.1208   32.6249 H   0  0  0  0  0  0  0  0  0  0  0  0
   30.0114   26.2785   32.1078 H   0  0  0  0  0  0  0  0  0  0  0  0
   27.3407   24.6833   32.5418 H   0  0  0  0  0  0  0  0  0  0  0  0
   27.6979   26.2228   31.7183 H   0  0  0  0  0  0  0  0  0  0  0  0
   22.2055   22.2888   35.4800 H   0  0  0  0  0  0  0  0  0  0  0  0
   19.3516   23.0035   36.0794 H   0  0  0  0  0  0  0  0  0  0  0  0
   20.1422   22.4767   37.6500 H   0  0  0  0  0  0  0  0  0  0  0  0
   18.0521   25.8176   39.8046 H   0  0  0  0  0  0  0  0  0  0  0  0
   16.4014   25.2244   39.3808 H   0  0  0  0  0  0  0  0  0  0  0  0
   17.2698   26.3357   38.2550 H   0  0  0  0  0  0  0  0  0  0  0  0
   20.3907   25.9389   38.6888 H   0  0  0  0  0  0  0  0  0  0  0  0
   19.6001   26.4680   37.1188 H   0  0  0  0  0  0  0  0  0  0  0  0
  1  2  1  0
  2  3  2  0
  2  4  1  0
  4  5  2  0
  5  6  1  0
  6  7  2  0
  7  8  1  0
  8  9  2  0
  9 10  1  0
 10 11  2  0
 11 12  1  0
 12 13  2  0
 13 14  1  0
  1 15  1  0
 15 16  2  0
 16 17  1  0
 17 18  2  0
 18 19  1  0
 19 20  1  0
 20 21  1  0
 21 22  2  0
 21 23  1  0
 20 24  1  0
 24 25  1  0
 25 26  2  0
 26 27  1  0
 13  4  1  0
 26 15  1  0
 12  7  1  0
 25 18  1  0
  1 28  1  0
  8 29  1  0
  9 30  1  0
 10 31  1  0
 11 32  1  0
 14 33  1  0
 14 34  1  0
 17 35  1  0
 19 36  1  0
 19 37  1  0
 23 38  1  0
 23 39  1  0
 23 40  1  0
 24 41  1  0
 24 42  1  0
M  END
$$$$
confid_2
     RDKit          3D

 42 45  0  0  0  0  0  0  0  0999 V2000
   24.6900   26.1200   35.5300 N   0  0  0  0  0  0  0  0  0  0  0  0
   25.6600   25.6700   34.6600 C   0  0  0  0  0  0  0  0  0  0  0  0
   25.2400   25.0100   33.7200 O   0  0  0  0  0  0  0  0  0  0  0  0
   27.0300   26.2200   34.8800 C   0  0  0  0  0  0  0  0  0  0  0  0
   27.3500   26.7300   36.0700 N   0  0  0  0  0  0  0  0  0  0  0  0
   28.5700   27.1800   36.3300 N   0  0  0  0  0  0  0  0  0  0  0  0
   29.5300   27.1100   35.3900 C   0  0  0  0  0  0  0  0  0  0  0  0
   30.8300   27.5700   35.6500 C   0  0  0  0  0  0  0  0  0  0  0  0
   31.8500   27.5400   34.6900 C   0  0  0  0  0  0  0  0  0  0  0  0
   31.5100   27.1200   33.4000 C   0  0  0  0  0  0  0  0  0  0  0  0
   30.2200   26.6300   33.1100 C   0  0  0  0  0  0  0  0  0  0  0  0
   29.2400   26.6600   34.1000 C   0  0  0  0  0  0  0  0  0  0  0  0
   27.9300   26.2600   33.8100 C   0  0  0  0  0  0  0  0  0  0  0  0
   27.5200   25.7100   32.6100 N   0  0  0  0  0  0  0  0  0  0  0  0
   23.3357   26.4277   35.1446 C   0  0  0  0  0  0  0  0  0  0  0  0
   22.9974   26.5370   33.8203 N   0  0  0  0  0  0  0  0  0  0  0  0
   21.7344   26.8496   33.4134 C   0  0  0  0  0  0  0  0  0  0  0  0
   20.7562   27.0704   34.3781 C   0  0  0  0  0  0  0  0  0  0  0  0
   19.3313   27.4262   34.1808 C   0  0  0  0  0  0  0  0  0  0  0  0
   18.8292   27.5316   35.5529 N   0  0  0  0  0  0  0  0  0  0  0  0
   17.4756   27.8655   35.8974 C   0  0  0  0  0  0  0  0  0  0  0  0
   17.1356   27.9328   37.1094 O   0  0  0  0  0  0  0  0  0  0  0  0
   16.4564   28.1372   34.8354 C   0  0  0  0  0  0  0  0  0  0  0  0
   19.8695   27.2584   36.5466 C   0  0  0  0  0  0  0  0  0  0  0  0
   21.0629   26.9759   35.7115 C   0  0  0  0  0  0  0  0  0  0  0  0
   22.3537   26.6574   36.1313 C   0  0  0  0  0  0  0  0  0  0  0  0
   22.6445   26.5684   37.4537 F   0  0  0  0  0  0  0  0  0  0  0  0
   24.9472   26.2576   36.5337 H   0  0  0  0  0  0  0  0  0  0  0  0
   31.0672   27.9417   36.6393 H   0  0  0  0  0  0  0  0  0  0  0  0
   32.8482   27.8886   34.9211 H   0  0  0  0  0  0  0  0  0  0  0  0
   32.2640   27.1262   32.6235 H   0  0  0  0  0  0  0  0  0  0  0  0
   30.0101   26.3033   32.1004 H   0  0  0  0  0  0  0  0  0  0  0  0
   26.6933   26.1021   32.1060 H   0  0  0  0  0  0  0  0  0  0  0  0
   28.1316   25.0436   32.0891 H   0  0  0  0  0  0  0  0  0  0  0  0
   21.5030   26.9264   32.3595 H   0  0  0  0  0  0  0  0  0  0  0  0
   19.2425   28.4016   33.6571 H   0  0  0  0  0  0  0  0  0  0  0  0
   18.8004   26.6194   33.6323 H   0  0  0  0  0  0  0  0  0  0  0  0
   15.4735   28.3819   35.2910 H   0  0  0  0  0  0  0  0  0  0  0  0
   16.7841   28.9957   34.2138 H   0  0  0  0  0  0  0  0  0  0  0  0
   16.3378   27.2404   34.1928 H   0  0  0  0  0  0  0  0  0  0  0  0
   20.0412   28.1512   37.1846 H   0  0  0  0  0  0  0  0  0  0  0  0
   19.5998   26.3703   37.1566 H   0  0  0  0  0  0  0  0  0  0  0  0
  1  2  1  0
  2  3  2  0
  2  4  1  0
  4  5  2  0
  5  6  1  0
  6  7  2  0
  7  8  1  0
  8  9  2  0
  9 10  1  0
 10 11  2  0
 11 12  1  0
 12 13  2  0
 13 14  1  0
  1 15  1  0
 15 16  2  0
 16 17  1  0
 17 18  2  0
 18 19  1  0
 19 20  1  0
 20 21  1  0
 21 22  2  0
 21 23  1  0
 20 24  1  0
 24 25  1  0
 25 26  2  0
 26 27  1  0
 13  4  1  0
 26 15  1  0
 12  7  1  0
 25 18  1  0
  1 28  1  0
  8 29  1  0
  9 30  1  0
 10 31  1  0
 11 32  1  0
 14 33  1  0
 14 34  1  0
 17 35  1  0
 19 36  1  0
 19 37  1  0
 23 38  1  0
 23 39  1  0
 23 40  1  0
 24 41  1  0
 24 42  1  0
M  END
$$$$
confid_3
     RDKit          3D

 42 45  0  0  0  0  0  0  0  0999 V2000
   24.6900   26.1200   35.5300 N   0  0  0  0  0  0  0  0  0  0  0  0
   25.6600   25.6700   34.6600 C   0  0  0  0  0  0  0  0  0  0  0  0
   25.2400   25.0100   33.7200 O   0  0  0  0  0  0  0  0  0  0  0  0
   27.0300   26.2200   34.8800 C   0  0  0  0  0  0  0  0  0  0  0  0
   27.3500   26.7300   36.0700 N   0  0  0  0  0  0  0  0  0  0  0  0
   28.5700   27.1800   36.3300 N   0  0  0  0  0  0  0  0  0  0  0  0
   29.5300   27.1100   35.3900 C   0  0  0  0  0  0  0  0  0  0  0  0
   30.8300   27.5700   35.6500 C   0  0  0  0  0  0  0  0  0  0  0  0
   31.8500   27.5400   34.6900 C   0  0  0  0  0  0  0  0  0  0  0  0
   31.5100   27.1200   33.4000 C   0  0  0  0  0  0  0  0  0  0  0  0
   30.2200   26.6300   33.1100 C   0  0  0  0  0  0  0  0  0  0  0  0
   29.2400   26.6600   34.1000 C   0  0  0  0  0  0  0  0  0  0  0  0
   27.9300   26.2600   33.8100 C   0  0  0  0  0  0  0  0  0  0  0  0
   27.5200   25.7100   32.6100 N   0  0  0  0  0  0  0  0  0  0  0  0
   23.3247   26.3914   35.1546 C   0  0  0  0  0  0  0  0  0  0  0  0
   22.9718   26.4847   33.8331 N   0  0  0  0  0  0  0  0  0  0  0  0
   21.6966   26.7598   33.4361 C   0  0  0  0  0  0  0  0  0  0  0  0
   20.7207   26.9568   34.4085 C   0  0  0  0  0  0  0  0  0  0  0  0
   19.2824   27.2632   34.2227 C   0  0  0  0  0  0  0  0  0  0  0  0
   18.7893   27.3583   35.5979 N   0  0  0  0  0  0  0  0  0  0  0  0
   17.4216   27.6466   35.9287 C   0  0  0  0  0  0  0  0  0  0  0  0
   16.5831   27.8475   35.0090 O   0  0  0  0  0  0  0  0  0  0  0  0
   16.9714   27.7057   37.3550 C   0  0  0  0  0  0  0  0  0  0  0  0
   19.8478   27.1251   36.5842 C   0  0  0  0  0  0  0  0  0  0  0  0
   21.0421   26.8779   35.7394 C   0  0  0  0  0  0  0  0  0  0  0  0
   22.3454   26.5986   36.1490 C   0  0  0  0  0  0  0  0  0  0  0  0
   22.6504   26.5245   37.4691 F   0  0  0  0  0  0  0  0  0  0  0  0
   24.9520   26.2781   36.5298 H   0  0  0  0  0  0  0  0  0  0  0  0
   31.0673   27.9413   36.6394 H   0  0  0  0  0  0  0  0  0  0  0  0
   32.8487   27.8872   34.9214 H   0  0  0  0  0  0  0  0  0  0  0  0
   32.2654   27.1208   32.6249 H   0  0  0  0  0  0  0  0  0  0  0  0
   30.0113   26.2786   32.1078 H   0  0  0  0  0  0  0  0  0  0  0  0
   27.3402   24.6834   32.5419 H   0  0  0  0  0  0  0  0  0  0  0  0
   27.6979   26.2227   31.7182 H   0  0  0  0  0  0  0  0  0  0  0  0
   21.4534   26.8230   32.3839 H   0  0  0  0  0  0  0  0  0  0  0  0
   18.7729   26.4360   33.6837 H   0  0  0  0  0  0  0  0  0  0  0  0
   19.1524   28.2320   33.6946 H   0  0  0  0  0  0  0  0  0  0  0  0
   17.1250   26.7173   37.8355 H   0  0  0  0  0  0  0  0  0  0  0  0
   17.5553   28.4749   37.9010 H   0  0  0  0  0  0  0  0  0  0  0  0
   15.8938   27.9683   37.4142 H   0  0  0  0  0  0  0  0  0  0  0  0
   19.6159   26.2320   37.2029 H   0  0  0  0  0  0  0  0  0  0  0  0
   19.9978   28.0275   37.2145 H   0  0  0  0  0  0  0  0  0  0  0  0
  1  2  1  0
  2  3  2  0
  2  4  1  0
  4  5  2  0
  5  6  1  0
  6  7  2  0
  7  8  1  0
  8  9  2  0
  9 10  1  0
 10 11  2  0
 11 12  1  0
 12 13  2  0
 13 14  1  0
  1 15  1  0
 15 16  2  0
 16 17  1  0
 17 18  2  0
 18 19  1  0
 19 20  1  0
 20 21  1  0
 21 22  2  0
 21 23  1  0
 20 24  1  0
 24 25  1  0
 25 26  2  0
 26 27  1  0
 13  4  1  0
 26 15  1  0
 12  7  1  0
 25 18  1  0
  1 28  1  0
  8 29  1  0
  9 30  1  0
 10 31  1  0
 11 32  1  0
 14 33  1  0
 14 34  1  0
 17 35  1  0
 19 36  1  0
 19 37  1  0
 23 38  1  0
 23 39  1  0
 23 40  1  0
 24 41  1  0
 24 42  1  0
M  END
$$$$
confid_4
     RDKit          3D

 42 45  0  0  0  0  0  0  0  0999 V2000
   24.6900   26.1200   35.5300 N   0  0  0  0  0  0  0  0  0  0  0  0
   25.6600   25.6700   34.6600 C   0  0  0  0  0  0  0  0  0  0  0  0
   25.2400   25.0100   33.7200 O   0  0  0  0  0  0  0  0  0  0  0  0
   27.0300   26.2200   34.8800 C   0  0  0  0  0  0  0  0  0  0  0  0
   27.3500   26.7300   36.0700 N   0  0  0  0  0  0  0  0  0  0  0  0
   28.5700   27.1800   36.3300 N   0  0  0  0  0  0  0  0  0  0  0  0
   29.5300   27.1100   35.3900 C   0  0  0  0  0  0  0  0  0  0  0  0
   30.8300   27.5700   35.6500 C   0  0  0  0  0  0  0  0  0  0  0  0
   31.8500   27.5400   34.6900 C   0  0  0  0  0  0  0  0  0  0  0  0
   31.5100   27.1200   33.4000 C   0  0  0  0  0  0  0  0  0  0  0  0
   30.2200   26.6300   33.1100 C   0  0  0  0  0  0  0  0  0  0  0  0
   29.2400   26.6600   34.1000 C   0  0  0  0  0  0  0  0  0  0  0  0
   27.9300   26.2600   33.8100 C   0  0  0  0  0  0  0  0  0  0  0  0
   27.5200   25.7100   32.6100 N   0  0  0  0  0  0  0  0  0  0  0  0
   23.5504   25.3353   35.9374 C   0  0  0  0  0  0  0  0  0  0  0  0
   23.3396   24.0884   35.4115 N   0  0  0  0  0  0  0  0  0  0  0  0
   22.2834   23.3088   35.7815 C   0  0  0  0  0  0  0  0  0  0  0  0
   21.3940   23.7941   36.7352 C   0  0  0  0  0  0  0  0  0  0  0  0
   20.1928   23.1326   37.2983 C   0  0  0  0  0  0  0  0  0  0  0  0
   19.7011   24.1188   38.2635 N   0  0  0  0  0  0  0  0  0  0  0  0
   18.5460   23.9312   39.0964 C   0  0  0  0  0  0  0  0  0  0  0  0
   18.2378   24.8097   39.9471 O   0  0  0  0  0  0  0  0  0  0  0  0
   17.6956   22.7049   38.9695 C   0  0  0  0  0  0  0  0  0  0  0  0
   20.5281   25.3259   38.2921 C   0  0  0  0  0  0  0  0  0  0  0  0
   21.5813   25.0345   37.2884 C   0  0  0  0  0  0  0  0  0  0  0  0
   22.6542   25.8398   36.9035 C   0  0  0  0  0  0  0  0  0  0  0  0
   22.8214   27.0683   37.4521 F   0  0  0  0  0  0  0  0  0  0  0  0
   24.8304   27.0475   35.9952 H   0  0  0  0  0  0  0  0  0  0  0  0
   31.0674   27.9414   36.6393 H   0  0  0  0  0  0  0  0  0  0  0  0
   32.8486   27.8872   34.9215 H   0  0  0  0  0  0  0  0  0  0  0  0
   32.2654   27.1207   32.6249 H   0  0  0  0  0  0  0  0  0  0  0  0
   30.0114   26.2784   32.1079 H   0  0  0  0  0  0  0  0  0  0  0  0
   27.3410   24.6832   32.5416 H   0  0  0  0  0  0  0  0  0  0  0  0
   27.6975   26.2231   31.7183 H   0  0  0  0  0  0  0  0  0  0  0  0
   22.1462   22.3317   35.3416 H   0  0  0  0  0  0  0  0  0  0  0  0
   19.4390   22.9548   36.5028 H   0  0  0  0  0  0  0  0  0  0  0  0
   20.4715   22.1885   37.8134 H   0  0  0  0  0  0  0  0  0  0  0  0
   16.8452   22.7401   39.6849 H   0  0  0  0  0  0  0  0  0  0  0  0
   18.3020   21.8034   39.1857 H   0  0  0  0  0  0  0  0  0  0  0  0
   17.2906   22.6370   37.9378 H   0  0  0  0  0  0  0  0  0  0  0  0
   20.9758   25.4655   39.2998 H   0  0  0  0  0  0  0  0  0  0  0  0
   19.9342   26.2112   37.9887 H   0  0  0  0  0  0  0  0  0  0  0  0
  1  2  1  0
  2  3  2  0
  2  4  1  0
  4  5  2  0
  5  6  1  0
  6  7  2  0
  7  8  1  0
  8  9  2  0
  9 10  1  0
 10 11  2  0
 11 12  1  0
 12 13  2  0
 13 14  1  0
  1 15  1  0
 15 16  2  0
 16 17  1  0
 17 18  2  0
 18 19  1  0
 19 20  1  0
 20 21  1  0
 21 22  2  0
 21 23  1  0
 20 24  1  0
 24 25  1  0
 25 26  2  0
 26 27  1  0
 13  4  1  0
 26 15  1  0
 12  7  1  0
 25 18  1  0
  1 28  1  0
  8 29  1  0
  9 30  1  0
 10 31  1  0
 11 32  1  0
 14 33  1  0
 14 34  1  0
 17 35  1  0
 19 36  1  0
 19 37  1  0
 23 38  1  0
 23 39  1  0
 23 40  1  0
 24 41  1  0
 24 42  1  0
M  END
$$$$
