confid_0
     RDKit          3D

 51 55  0  0  0  0  0  0  0  0999 V2000
   24.2000   26.2400   35.6900 N   0  0  0  0  0  0  0  0  0  0  0  0
   24.8500   26.2800   34.4800 C   0  0  0  0  0  0  0  0  0  0  0  0
   24.3100   25.7400   33.5400 O   0  0  0  0  0  0  0  0  0  0  0  0
   26.1800   26.9700   34.4700 C   0  0  0  0  0  0  0  0  0  0  0  0
   26.6500   27.6000   35.5500 N   0  0  0  0  0  0  0  0  0  0  0  0
   27.7900   28.2700   35.6200 N   0  0  0  0  0  0  0  0  0  0  0  0
   28.5400   28.3000   34.5100 C   0  0  0  0  0  0  0  0  0  0  0  0
   29.7700   28.9400   34.5600 C   0  0  0  0  0  0  0  0  0  0  0  0
   30.7000   28.8900   33.5000 C   0  0  0  0  0  0  0  0  0  0  0  0
   30.3700   28.1400   32.3700 C   0  0  0  0  0  0  0  0  0  0  0  0
   29.1200   27.5200   32.2800 C   0  0  0  0  0  0  0  0  0  0  0  0
   28.2100   27.6100   33.3300 C   0  0  0  0  0  0  0  0  0  0  0  0
   26.9700   26.9700   33.3100 C   0  0  0  0  0  0  0  0  0  0  0  0
   26.5300   26.2400   32.2200 N   0  0  0  0  0  0  0  0  0  0  0  0
   30.1508   29.6533   35.7465 N   0  0  0  0  0  0  0  0  0  0  0  0
   30.3995   31.0930   35.8092 C   0  0  0  0  0  0  0  0  0  0  0  0
   30.8327   31.3829   37.2678 C   0  0  0  0  0  0  0  0  0  0  0  0
   30.8573   30.0315   37.8964 C   0  0  0  0  0  0  0  0  0  0  0  0
   31.2291   29.6955   39.1960 C   0  0  0  0  0  0  0  0  0  0  0  0
   31.2039   28.3419   39.5828 C   0  0  0  0  0  0  0  0  0  0  0  0
   31.5833   27.9897   40.9175 N   0  0  0  0  0  0  0  0  0  0  0  0
   31.7138   26.7769   41.7471 C   0  0  0  0  0  0  0  0  0  0  0  0
   32.1757   27.4761   42.9818 C   0  0  0  0  0  0  0  0  0  0  0  0
   32.0384   28.6941   42.1304 C   0  0  0  0  0  0  0  0  0  0  0  0
   30.8119   27.3444   38.6533 C   0  0  0  0  0  0  0  0  0  0  0  0
   30.4460   27.7235   37.3405 C   0  0  0  0  0  0  0  0  0  0  0  0
   30.4681   29.0781   37.0021 C   0  0  0  0  0  0  0  0  0  0  0  0
   30.7985   26.0016   39.0615 O   0  0  0  0  0  0  0  0  0  0  0  0
   30.4166   24.9093   38.2317 C   0  0  0  0  0  0  0  0  0  0  0  0
   23.2679   25.7741   35.7693 H   0  0  0  0  0  0  0  0  0  0  0  0
   24.5993   26.6529   36.5619 H   0  0  0  0  0  0  0  0  0  0  0  0
   31.6618   29.3818   33.5714 H   0  0  0  0  0  0  0  0  0  0  0  0
   31.0744   28.0583   31.5523 H   0  0  0  0  0  0  0  0  0  0  0  0
   28.8955   26.9540   31.3858 H   0  0  0  0  0  0  0  0  0  0  0  0
   26.3241   25.2204   32.3142 H   0  0  0  0  0  0  0  0  0  0  0  0
   26.6265   26.6230   31.2536 H   0  0  0  0  0  0  0  0  0  0  0  0
   31.2106   31.3710   35.1023 H   0  0  0  0  0  0  0  0  0  0  0  0
   29.4714   31.6491   35.5556 H   0  0  0  0  0  0  0  0  0  0  0  0
   31.8430   31.8442   37.3007 H   0  0  0  0  0  0  0  0  0  0  0  0
   30.0911   32.0310   37.7822 H   0  0  0  0  0  0  0  0  0  0  0  0
   31.5352   30.4673   39.8907 H   0  0  0  0  0  0  0  0  0  0  0  0
   32.4854   26.0912   41.3312 H   0  0  0  0  0  0  0  0  0  0  0  0
   30.7278   26.2788   41.8823 H   0  0  0  0  0  0  0  0  0  0  0  0
   31.4371   27.4353   43.8116 H   0  0  0  0  0  0  0  0  0  0  0  0
   33.2296   27.2440   43.2488 H   0  0  0  0  0  0  0  0  0  0  0  0
   33.0114   29.2037   41.9521 H   0  0  0  0  0  0  0  0  0  0  0  0
   31.2547   29.3908   42.5028 H   0  0  0  0  0  0  0  0  0  0  0  0
   30.1544   26.9903   36.6019 H   0  0  0  0  0  0  0  0  0  0  0  0
   30.4938   23.9683   38.8138 H   0  0  0  0  0  0  0  0  0  0  0  0
   29.3656   25.0345   37.8953 H   0  0  0  0  0  0  0  0  0  0  0  0
   31.0940   24.8413   37.3544 H   0  0  0  0  0  0  0  0  0  0  0  0
  1  2  1  0
  2  3  2  0
  2  4  1  0
  4  5  2  0
  5  6  1  0
  6  7  2  0
  7  8  1  0
  8  9  2  0
  9 10  1  0
 10 11  2  0
 11 12  1  0
 12 13  2  0
 13 14  1  0
  8 15  1  0
 15 16  1  0
 16 17  1  0
 17 18  1  0
 18 19  2  0
 19 20  1  0
 20 21  1  0
 21 22  1  0
 22 23  1  0
 23 24  1  0
 20 25  2  0
 25 26  1  0
 26 27  2  0
 25 28  1  0
 28 29  1  0
 13  4  1  0
 27 15  1  0
 12  7  1  0
 27 18  1  0
 24 21  1  0
  1 30  1  0
  1 31  1  0
  9 32  1  0
 10 33  1  0
 11 34  1  0
 14 35  1  0
 14 36  1  0
 16 37  1  0
 16 38  1  0
 17 39  1  0
 17 40  1  0
 19 41  1  0
 22 42  1  0
 22 43  1  0
 23 44  1  0
 23 45  1  0
 24 46  1  0
 24 47  1  0
 26 48  1  0
 29 49  1  0
 29 50  1  0
 29 51  1  0
M  END
$$$$
confid_1
     RDKit          3D

 51 55  0  0  0  0  0  0  0  0999 V2000
   24.2000   26.2400   35.6900 N   0  0  0  0  0  0  0  0  0  0  0  0
   24.8500   26.2800   34.4800 C   0  0  0  0  0  0  0  0  0  0  0  0
   24.3100   25.7400   33.5400 O   0  0  0  0  0  0  0  0  0  0  0  0
   26.1800   26.9700   34.4700 C   0  0  0  0  0  0  0  0  0  0  0  0
   26.6500   27.6000   35.5500 N   0  0  0  0  0  0  0  0  0  0  0  0
   27.7900   28.2700   35.6200 N   0  0  0  0  0  0  0  0  0  0  0  0
   28.5400   28.3000   34.5100 C   0  0  0  0  0  0  0  0  0  0  0  0
   29.7700   28.9400   34.5600 C   0  0  0  0  0  0  0  0  0  0  0  0
   30.7000   28.8900   33.5000 C   0  0  0  0  0  0  0  0  0  0  0  0
   30.3700   28.1400   32.3700 C   0  0  0  0  0  0  0  0  0  0  0  0
   29.1200   27.5200   32.2800 C   0  0  0  0  0  0  0  0  0  0  0  0
   28.2100   27.6100   33.3300 C   0  0  0  0  0  0  0  0  0  0  0  0
   26.9700   26.9700   33.3100 C   0  0  0  0  0  0  0  0  0  0  0  0
   26.5300   26.2400   32.2200 N   0  0  0  0  0  0  0  0  0  0  0  0
   30.1269   29.6879   35.7357 N   0  0  0  0  0  0  0  0  0  0  0  0
   29.4651   30.9302   36.1411 C   0  0  0  0  0  0  0  0  0  0  0  0
   30.3821   31.5758   37.2086 C   0  0  0  0  0  0  0  0  0  0  0  0
   31.5266   30.6280   37.2986 C   0  0  0  0  0  0  0  0  0  0  0  0
   32.6527   30.7177   38.1134 C   0  0  0  0  0  0  0  0  0  0  0  0
   33.6187   29.6952   38.0546 C   0  0  0  0  0  0  0  0  0  0  0  0
   34.7799   29.7826   38.8873 N   0  0  0  0  0  0  0  0  0  0  0  0
   36.0010   29.0041   39.1686 C   0  0  0  0  0  0  0  0  0  0  0  0
   36.5610   29.9449   40.1827 C   0  0  0  0  0  0  0  0  0  0  0  0
   35.3210   30.7212   39.8876 C   0  0  0  0  0  0  0  0  0  0  0  0
   33.4337   28.5926   37.1815 C   0  0  0  0  0  0  0  0  0  0  0  0
   32.2753   28.5347   36.3715 C   0  0  0  0  0  0  0  0  0  0  0  0
   31.3483   29.5766   36.4482 C   0  0  0  0  0  0  0  0  0  0  0  0
   34.4080   27.5830   37.1453 O   0  0  0  0  0  0  0  0  0  0  0  0
   34.3453   26.4300   36.3124 C   0  0  0  0  0  0  0  0  0  0  0  0
   23.2683   25.7734   35.7695 H   0  0  0  0  0  0  0  0  0  0  0  0
   24.5986   26.6542   36.5616 H   0  0  0  0  0  0  0  0  0  0  0  0
   31.6535   29.3994   33.5610 H   0  0  0  0  0  0  0  0  0  0  0  0
   31.0725   28.0625   31.5503 H   0  0  0  0  0  0  0  0  0  0  0  0
   28.8951   26.9549   31.3853 H   0  0  0  0  0  0  0  0  0  0  0  0
   26.6263   26.6231   31.2536 H   0  0  0  0  0  0  0  0  0  0  0  0
   26.3242   25.2203   32.3141 H   0  0  0  0  0  0  0  0  0  0  0  0
   29.3586   31.6062   35.2649 H   0  0  0  0  0  0  0  0  0  0  0  0
   28.4640   30.7104   36.5686 H   0  0  0  0  0  0  0  0  0  0  0  0
   30.7348   32.5770   36.8804 H   0  0  0  0  0  0  0  0  0  0  0  0
   29.8639   31.6469   38.1889 H   0  0  0  0  0  0  0  0  0  0  0  0
   32.7757   31.5619   38.7800 H   0  0  0  0  0  0  0  0  0  0  0  0
   35.7488   28.0106   39.6021 H   0  0  0  0  0  0  0  0  0  0  0  0
   36.6406   28.9250   38.2614 H   0  0  0  0  0  0  0  0  0  0  0  0
   37.4889   30.4544   39.8433 H   0  0  0  0  0  0  0  0  0  0  0  0
   36.5795   29.5218   41.2106 H   0  0  0  0  0  0  0  0  0  0  0  0
   34.6440   30.7976   40.7675 H   0  0  0  0  0  0  0  0  0  0  0  0
   35.5353   31.7116   39.4278 H   0  0  0  0  0  0  0  0  0  0  0  0
   32.0931   27.7030   35.7057 H   0  0  0  0  0  0  0  0  0  0  0  0
   33.4460   25.8279   36.5610 H   0  0  0  0  0  0  0  0  0  0  0  0
   35.2477   25.8088   36.4858 H   0  0  0  0  0  0  0  0  0  0  0  0
   34.3210   26.7316   35.2439 H   0  0  0  0  0  0  0  0  0  0  0  0
  1  2  1  0
  2  3  2  0
  2  4  1  0
  4  5  2  0
  5  6  1  0
  6  7  2  0
  7  8  1  0
  8  9  2  0
  9 10  1  0
 10 11  2  0
 11 12  1  0
 12 13  2  0
 13 14  1  0
  8 15  1  0
 15 16  1  0
 16 17  1  0
 17 18  1  0
 18 19  2  0
 19 20  1  0
 20 21  1  0
 21 22  1  0
 22 23  1  0
 23 24  1  0
 20 25  2  0
 25 26  1  0
 26 27  2  0
 25 28  1  0
 28 29  1  0
 13  4  1  0
 27 15  1  0
 12  7  1  0
 27 18  1  0
 24 21  1  0
  1 30  1  0
  1 31  1  0
  9 32  1  0
 10 33  1  0
 11 34  1  0
 14 35  1  0
 14 36  1  0
 16 37  1  0
 16 38  1  0
 17 39  1  0
 17 40  1  0
 19 41  1  0
 22 42  1  0
 22 43  1  0
 23 44  1  0
 23 45  1  0
 24 46  1  0
 24 47  1  0
 26 48  1  0
 29 49  1  0
 29 50  1  0
 29 51  1  0
M  END
$$$$
confid_2
     RDKit          3D

 51 55  0  0  0  0  0  0  0  0999 V2000
   24.2000   26.2400   35.6900 N   0  0  0  0  0  0  0  0  0  0  0  0
   24.8500   26.2800   34.4800 C   0  0  0  0  0  0  0  0  0  0  0  0
   24.3100   25.7400   33.5400 O   0  0  0  0  0  0  0  0  0  0  0  0
   26.1800   26.9700   34.4700 C   0  0  0  0  0  0  0  0  0  0  0  0
   26.6500   27.6000   35.5500 N   0  0  0  0  0  0  0  0  0  0  0  0
   27.7900   28.2700   35.6200 N   0  0  0  0  0  0  0  0  0  0  0  0
   28.5400   28.3000   34.5100 C   0  0  0  0  0  0  0  0  0  0  0  0
   29.7700   28.9400   34.5600 C   0  0  0  0  0  0  0  0  0  0  0  0
   30.7000   28.8900   33.5000 C   0  0  0  0  0  0  0  0  0  0  0  0
   30.3700   28.1400   32.3700 C   0  0  0  0  0  0  0  0  0  0  0  0
   29.1200   27.5200   32.2800 C   0  0  0  0  0  0  0  0  0  0  0  0
   28.2100   27.6100   33.3300 C   0  0  0  0  0  0  0  0  0  0  0  0
   26.9700   26.9700   33.3100 C   0  0  0  0  0  0  0  0  0  0  0  0
   26.5300   26.2400   32.2200 N   0  0  0  0  0  0  0  0  0  0  0  0
   30.1424   29.6631   35.7453 N   0  0  0  0  0  0  0  0  0  0  0  0
   30.5541   29.0167   36.9937 C   0  0  0  0  0  0  0  0  0  0  0  0
   31.2608   30.1109   37.8311 C   0  0  0  0  0  0  0  0  0  0  0  0
   31.2233   31.3034   36.9409 C   0  0  0  0  0  0  0  0  0  0  0  0
   31.7397   32.5740   37.1844 C   0  0  0  0  0  0  0  0  0  0  0  0
   31.5940   33.5686   36.1983 C   0  0  0  0  0  0  0  0  0  0  0  0
   32.1249   34.8759   36.4409 N   0  0  0  0  0  0  0  0  0  0  0  0
   32.2092   36.1804   35.7570 C   0  0  0  0  0  0  0  0  0  0  0  0
   32.9602   36.8806   36.8398 C   0  0  0  0  0  0  0  0  0  0  0  0
   32.8682   35.5545   37.5182 C   0  0  0  0  0  0  0  0  0  0  0  0
   30.9280   33.2707   34.9819 C   0  0  0  0  0  0  0  0  0  0  0  0
   30.4180   31.9681   34.7701 C   0  0  0  0  0  0  0  0  0  0  0  0
   30.5893   31.0085   35.7702 C   0  0  0  0  0  0  0  0  0  0  0  0
   30.7924   34.2798   34.0158 O   0  0  0  0  0  0  0  0  0  0  0  0
   30.1543   34.1093   32.7545 C   0  0  0  0  0  0  0  0  0  0  0  0
   23.2680   25.7740   35.7694 H   0  0  0  0  0  0  0  0  0  0  0  0
   24.5979   26.6554   36.5612 H   0  0  0  0  0  0  0  0  0  0  0  0
   31.6604   29.3853   33.5695 H   0  0  0  0  0  0  0  0  0  0  0  0
   31.0717   28.0643   31.5494 H   0  0  0  0  0  0  0  0  0  0  0  0
   28.8856   26.9763   31.3747 H   0  0  0  0  0  0  0  0  0  0  0  0
   25.6756   26.5398   31.6999 H   0  0  0  0  0  0  0  0  0  0  0  0
   27.1523   25.5356   31.7657 H   0  0  0  0  0  0  0  0  0  0  0  0
   29.6665   28.6239   37.5336 H   0  0  0  0  0  0  0  0  0  0  0  0
   31.2584   28.1844   36.7755 H   0  0  0  0  0  0  0  0  0  0  0  0
   30.7043   30.3156   38.7709 H   0  0  0  0  0  0  0  0  0  0  0  0
   32.3117   29.8273   38.0528 H   0  0  0  0  0  0  0  0  0  0  0  0
   32.2437   32.7861   38.1187 H   0  0  0  0  0  0  0  0  0  0  0  0
   31.1960   36.6106   35.5942 H   0  0  0  0  0  0  0  0  0  0  0  0
   32.7963   36.0991   34.8152 H   0  0  0  0  0  0  0  0  0  0  0  0
   33.9980   37.1535   36.5494 H   0  0  0  0  0  0  0  0  0  0  0  0
   32.3658   37.6732   37.3438 H   0  0  0  0  0  0  0  0  0  0  0  0
   33.8641   35.0823   37.6708 H   0  0  0  0  0  0  0  0  0  0  0  0
   32.2666   35.5925   38.4536 H   0  0  0  0  0  0  0  0  0  0  0  0
   29.8980   31.7051   33.8593 H   0  0  0  0  0  0  0  0  0  0  0  0
   30.1950   35.0668   32.1961 H   0  0  0  0  0  0  0  0  0  0  0  0
   29.0900   33.8276   32.9001 H   0  0  0  0  0  0  0  0  0  0  0  0
   30.6794   33.3296   32.1630 H   0  0  0  0  0  0  0  0  0  0  0  0
  1  2  1  0
  2  3  2  0
  2  4  1  0
  4  5  2  0
  5  6  1  0
  6  7  2  0
  7  8  1  0
  8  9  2  0
  9 10  1  0
 10 11  2  0
 11 12  1  0
 12 13  2  0
 13 14  1  0
  8 15  1  0
 15 16  1  0
 16 17  1  0
 17 18  1  0
 18 19  2  0
 19 20  1  0
 20 21  1  0
 21 22  1  0
 22 23  1  0
 23 24  1  0
 20 25  2  0
 25 26  1  0
 26 27  2  0
 25 28  1  0
 28 29  1  0
 13  4  1  0
 27 15  1  0
 12  7  1  0
 27 18  1  0
 24 21  1  0
  1 30  1  0
  1 31  1  0
  9 32  1  0
 10 33  1  0
 11 34  1  0
 14 35  1  0
 14 36  1  0
 16 37  1  0
 16 38  1  0
 17 39  1  0
 17 40  1  0
 19 41  1  0
 22 42  1  0
 22 43  1  0
 23 44  1  0
 23 45  1  0
 24 46  1  0
 24 47  1  0
 26 48  1  0
 29 49  1  0
 29 50  1  0
 29 51  1  0
M  END
$$$$
confid_3
     RDKit          3D

 51 55  0  0  0  0  0  0  0  0999 V2000
   24.2000   26.2400   35.6900 N   0  0  0  0  0  0  0  0  0  0  0  0
   24.8500   26.2800   34.4800 C   0  0  0  0  0  0  0  0  0  0  0  0
   24.3100   25.7400   33.5400 O   0  0  0  0  0  0  0  0  0  0  0  0
   26.1800   26.9700   34.4700 C   0  0  0  0  0  0  0  0  0  0  0  0
   26.6500   27.6000   35.5500 N   0  0  0  0  0  0  0  0  0  0  0  0
   27.7900   28.2700   35.6200 N   0  0  0  0  0  0  0  0  0  0  0  0
   28.5400   28.3000   34.5100 C   0  0  0  0  0  0  0  0  0  0  0  0
   29.7700   28.9400   34.5600 C   0  0  0  0  0  0  0  0  0  0  0  0
   30.7000   28.8900   33.5000 C   0  0  0  0  0  0  0  0  0  0  0  0
   30.3700   28.1400   32.3700 C   0  0  0  0  0  0  0  0  0  0  0  0
   29.1200   27.5200   32.2800 C   0  0  0  0  0  0  0  0  0  0  0  0
   28.2100   27.6100   33.3300 C   0  0  0  0  0  0  0  0  0  0  0  0
   26.9700   26.9700   33.3100 C   0  0  0  0  0  0  0  0  0  0  0  0
   26.5300   26.2400   32.2200 N   0  0  0  0  0  0  0  0  0  0  0  0
   30.1264   29.6887   35.7354 N   0  0  0  0  0  0  0  0  0  0  0  0
   29.4635   30.9306   36.1402 C   0  0  0  0  0  0  0  0  0  0  0  0
   30.3797   31.5774   37.2076 C   0  0  0  0  0  0  0  0  0  0  0  0
   31.5249   30.6303   37.2984 C   0  0  0  0  0  0  0  0  0  0  0  0
   32.6506   30.7213   38.1135 C   0  0  0  0  0  0  0  0  0  0  0  0
   33.6176   29.6997   38.0550 C   0  0  0  0  0  0  0  0  0  0  0  0
   34.7785   29.7884   38.8882 N   0  0  0  0  0  0  0  0  0  0  0  0
   35.3181   30.7275   39.8888 C   0  0  0  0  0  0  0  0  0  0  0  0
   36.5591   29.9528   40.1839 C   0  0  0  0  0  0  0  0  0  0  0  0
   36.0006   29.0116   39.1692 C   0  0  0  0  0  0  0  0  0  0  0  0
   33.4341   28.5970   37.1819 C   0  0  0  0  0  0  0  0  0  0  0  0
   32.2758   28.5377   36.3718 C   0  0  0  0  0  0  0  0  0  0  0  0
   31.3478   29.5786   36.4482 C   0  0  0  0  0  0  0  0  0  0  0  0
   34.4095   27.5884   37.1459 O   0  0  0  0  0  0  0  0  0  0  0  0
   34.3484   26.4355   36.3128 C   0  0  0  0  0  0  0  0  0  0  0  0
   23.2681   25.7737   35.7694 H   0  0  0  0  0  0  0  0  0  0  0  0
   24.5988   26.6538   36.5617 H   0  0  0  0  0  0  0  0  0  0  0  0
   31.6534   29.3995   33.5609 H   0  0  0  0  0  0  0  0  0  0  0  0
   31.0725   28.0625   31.5502 H   0  0  0  0  0  0  0  0  0  0  0  0
   28.8950   26.9549   31.3853 H   0  0  0  0  0  0  0  0  0  0  0  0
   26.6263   26.6231   31.2536 H   0  0  0  0  0  0  0  0  0  0  0  0
   26.3242   25.2204   32.3142 H   0  0  0  0  0  0  0  0  0  0  0  0
   29.3566   31.6062   35.2637 H   0  0  0  0  0  0  0  0  0  0  0  0
   28.4624   30.7103   36.5676 H   0  0  0  0  0  0  0  0  0  0  0  0
   29.8612   31.6487   38.1877 H   0  0  0  0  0  0  0  0  0  0  0  0
   30.7319   32.5787   36.8789 H   0  0  0  0  0  0  0  0  0  0  0  0
   32.7725   31.5656   38.7800 H   0  0  0  0  0  0  0  0  0  0  0  0
   34.6410   30.8026   40.7687 H   0  0  0  0  0  0  0  0  0  0  0  0
   35.5311   31.7183   39.4294 H   0  0  0  0  0  0  0  0  0  0  0  0
   36.5780   29.5294   41.2116 H   0  0  0  0  0  0  0  0  0  0  0  0
   37.4863   30.4639   39.8448 H   0  0  0  0  0  0  0  0  0  0  0  0
   36.6404   28.9338   38.2620 H   0  0  0  0  0  0  0  0  0  0  0  0
   35.7498   28.0175   39.6022 H   0  0  0  0  0  0  0  0  0  0  0  0
   32.0946   27.7057   35.7061 H   0  0  0  0  0  0  0  0  0  0  0  0
   34.3243   26.7373   35.2444 H   0  0  0  0  0  0  0  0  0  0  0  0
   33.4496   25.8324   36.5609 H   0  0  0  0  0  0  0  0  0  0  0  0
   35.2513   25.8152   36.4866 H   0  0  0  0  0  0  0  0  0  0  0  0
  1  2  1  0
  2  3  2  0
  2  4  1  0
  4  5  2  0
  5  6  1  0
  6  7  2  0
  7  8  1  0
  8  9  2  0
  9 10  1  0
 10 11  2  0
 11 12  1  0
 12 13  2  0
 13 14  1  0
  8 15  1  0
 15 16  1  0
 16 17  1  0
 17 18  1  0
 18 19  2  0
 19 20  1  0
 20 21  1  0
 21 22  1  0
 22 23  1  0
 23 24  1  0
 20 25  2  0
 25 26  1  0
 26 27  2  0
 25 28  1  0
 28 29  1  0
 13  4  1  0
 27 15  1  0
 12  7  1  0
 27 18  1  0
 24 21  1  0
  1 30  1  0
  1 31  1  0
  9 32  1  0
 10 33  1  0
 11 34  1  0
 14 35  1  0
 14 36  1  0
 16 37  1  0
 16 38  1  0
 17 39  1  0
 17 40  1  0
 19 41  1  0
 22 42  1  0
 22 43  1  0
 23 44  1  0
 23 45  1  0
 24 46  1  0
 24 47  1  0
 26 48  1  0
 29 49  1  0
 29 50  1  0
 29 51  1  0
M  END
$$$$
confid_4
     RDKit          3D

 51 55  0  0  0  0  0  0  0  0999 V2000
   24.2000   26.2400   35.6900 N   0  0  0  0  0  0  0  0  0  0  0  0
   24.8500   26.2800   34.4800 C   0  0  0  0  0  0  0  0  0  0  0  0
   24.3100   25.7400   33.5400 O   0  0  0  0  0  0  0  0  0  0  0  0
   26.1800   26.9700   34.4700 C   0  0  0  0  0  0  0  0  0  0  0  0
   26.6500   27.6000   35.5500 N   0  0  0  0  0  0  0  0  0  0  0  0
   27.7900   28.2700   35.6200 N   0  0  0  0  0  0  0  0  0  0  0  0
   28.5400   28.3000   34.5100 C   0  0  0  0  0  0  0  0  0  0  0  0
   29.7700   28.9400   34.5600 C   0  0  0  0  0  0  0  0  0  0  0  0
   30.7000   28.8900   33.5000 C   0  0  0  0  0  0  0  0  0  0  0  0
   30.3700   28.1400   32.3700 C   0  0  0  0  0  0  0  0  0  0  0  0
   29.1200   27.5200   32.2800 C   0  0  0  0  0  0  0  0  0  0  0  0
   28.2100   27.6100   33.3300 C   0  0  0  0  0  0  0  0  0  0  0  0
   26.9700   26.9700   33.3100 C   0  0  0  0  0  0  0  0  0  0  0  0
   26.5300   26.2400   32.2200 N   0  0  0  0  0  0  0  0  0  0  0  0
   30.1464   29.6556   35.7490 N   0  0  0  0  0  0  0  0  0  0  0  0
   30.5365   29.0008   37.0004 C   0  0  0  0  0  0  0  0  0  0  0  0
   31.2508   30.0824   37.8472 C   0  0  0  0  0  0  0  0  0  0  0  0
   31.2423   31.2762   36.9583 C   0  0  0  0  0  0  0  0  0  0  0  0
   31.7737   32.5386   37.2112 C   0  0  0  0  0  0  0  0  0  0  0  0
   31.6538   33.5373   36.2261 C   0  0  0  0  0  0  0  0  0  0  0  0
   32.1998   34.8365   36.4786 N   0  0  0  0  0  0  0  0  0  0  0  0
   32.9246   35.5071   37.5737 C   0  0  0  0  0  0  0  0  0  0  0  0
   33.0524   36.8303   36.8956 C   0  0  0  0  0  0  0  0  0  0  0  0
   32.3183   36.1387   35.7957 C   0  0  0  0  0  0  0  0  0  0  0  0
   30.9967   33.2522   35.0017 C   0  0  0  0  0  0  0  0  0  0  0  0
   30.4675   31.9586   34.7823 C   0  0  0  0  0  0  0  0  0  0  0  0
   30.6152   30.9937   35.7807 C   0  0  0  0  0  0  0  0  0  0  0  0
   30.8875   34.2653   34.0365 O   0  0  0  0  0  0  0  0  0  0  0  0
   30.2584   34.1083   32.7690 C   0  0  0  0  0  0  0  0  0  0  0  0
   24.5989   26.6538   36.5617 H   0  0  0  0  0  0  0  0  0  0  0  0
   23.2681   25.7737   35.7694 H   0  0  0  0  0  0  0  0  0  0  0  0
   31.6619   29.3822   33.5706 H   0  0  0  0  0  0  0  0  0  0  0  0
   31.0743   28.0588   31.5521 H   0  0  0  0  0  0  0  0  0  0  0  0
   28.8954   26.9542   31.3857 H   0  0  0  0  0  0  0  0  0  0  0  0
   26.3241   25.2204   32.3142 H   0  0  0  0  0  0  0  0  0  0  0  0
   26.6264   26.6231   31.2536 H   0  0  0  0  0  0  0  0  0  0  0  0
   31.2308   28.1590   36.7873 H   0  0  0  0  0  0  0  0  0  0  0  0
   29.6386   28.6204   37.5318 H   0  0  0  0  0  0  0  0  0  0  0  0
   30.6867   30.2950   38.7806 H   0  0  0  0  0  0  0  0  0  0  0  0
   32.2946   29.7823   38.0819 H   0  0  0  0  0  0  0  0  0  0  0  0
   32.2696   32.7413   38.1519 H   0  0  0  0  0  0  0  0  0  0  0  0
   32.2990   35.5556   38.4927 H   0  0  0  0  0  0  0  0  0  0  0  0
   33.9095   35.0215   37.7539 H   0  0  0  0  0  0  0  0  0  0  0  0
   32.4573   37.6326   37.3837 H   0  0  0  0  0  0  0  0  0  0  0  0
   34.1007   37.0875   36.6296 H   0  0  0  0  0  0  0  0  0  0  0  0
   32.9265   36.0480   34.8682 H   0  0  0  0  0  0  0  0  0  0  0  0
   31.3152   36.5824   35.6076 H   0  0  0  0  0  0  0  0  0  0  0  0
   29.9512   31.7067   33.8665 H   0  0  0  0  0  0  0  0  0  0  0  0
   29.1878   33.8461   32.9039 H   0  0  0  0  0  0  0  0  0  0  0  0
   30.3222   35.0655   32.2122 H   0  0  0  0  0  0  0  0  0  0  0  0
   30.7748   33.3199   32.1815 H   0  0  0  0  0  0  0  0  0  0  0  0
  1  2  1  0
  2  3  2  0
  2  4  1  0
  4  5  2  0
  5  6  1  0
  6  7  2  0
  7  8  1  0
  8  9  2  0
  9 10  1  0
 10 11  2  0
 11 12  1  0
 12 13  2  0
 13 14  1  0
  8 15  1  0
 15 16  1  0
 16 17  1  0
 17 18  1  0
 18 19  2  0
 19 20  1  0
 20 21  1  0
 21 22  1  0
 22 23  1  0
 23 24  1  0
 20 25  2  0
 25 26  1  0
 26 27  2  0
 25 28  1  0
 28 29  1  0
 13  4  1  0
 27 15  1  0
 12  7  1  0
 27 18  1  0
 24 21  1  0
  1 30  1  0
  1 31  1  0
  9 32  1  0
 10 33  1  0
 11 34  1  0
 14 35  1  0
 14 36  1  0
 16 37  1  0
 16 38  1  0
 17 39  1  0
 17 40  1  0
 19 41  1  0
 22 42  1  0
 22 43  1  0
 23 44  1  0
 23 45  1  0
 24 46  1  0
 24 47  1  0
 26 48  1  0
 29 49  1  0
 29 50  1  0
 29 51  1  0
M  END
$$$$
confid_5
     RDKit          3D

 51 55  0  0  0  0  0  0  0  0999 V2000
   24.2000   26.2400   35.6900 N   0  0  0  0  0  0  0  0  0  0  0  0
   24.8500   26.2800   34.4800 C   0  0  0  0  0  0  0  0  0  0  0  0
   24.3100   25.7400   33.5400 O   0  0  0  0  0  0  0  0  0  0  0  0
   26.1800   26.9700   34.4700 C   0  0  0  0  0  0  0  0  0  0  0  0
   26.6500   27.6000   35.5500 N   0  0  0  0  0  0  0  0  0  0  0  0
   27.7900   28.2700   35.6200 N   0  0  0  0  0  0  0  0  0  0  0  0
   28.5400   28.3000   34.5100 C   0  0  0  0  0  0  0  0  0  0  0  0
   29.7700   28.9400   34.5600 C   0  0  0  0  0  0  0  0  0  0  0  0
   30.7000   28.8900   33.5000 C   0  0  0  0  0  0  0  0  0  0  0  0
   30.3700   28.1400   32.3700 C   0  0  0  0  0  0  0  0  0  0  0  0
   29.1200   27.5200   32.2800 C   0  0  0  0  0  0  0  0  0  0  0  0
   28.2100   27.6100   33.3300 C   0  0  0  0  0  0  0  0  0  0  0  0
   26.9700   26.9700   33.3100 C   0  0  0  0  0  0  0  0  0  0  0  0
   26.5300   26.2400   32.2200 N   0  0  0  0  0  0  0  0  0  0  0  0
   30.1502   29.6552   35.7456 N   0  0  0  0  0  0  0  0  0  0  0  0
   30.3959   31.0955   35.8065 C   0  0  0  0  0  0  0  0  0  0  0  0
   30.8236   31.3889   37.2660 C   0  0  0  0  0  0  0  0  0  0  0  0
   30.8460   30.0390   37.8980 C   0  0  0  0  0  0  0  0  0  0  0  0
   31.2110   29.7065   39.2004 C   0  0  0  0  0  0  0  0  0  0  0  0
   31.1840   28.3538   39.5905 C   0  0  0  0  0  0  0  0  0  0  0  0
   31.5545   28.0054   40.9288 N   0  0  0  0  0  0  0  0  0  0  0  0
   31.9988   28.7136   42.1435 C   0  0  0  0  0  0  0  0  0  0  0  0
   32.1299   27.4982   42.9996 C   0  0  0  0  0  0  0  0  0  0  0  0
   31.6794   26.7950   41.7627 C   0  0  0  0  0  0  0  0  0  0  0  0
   30.7977   27.3537   38.6614 C   0  0  0  0  0  0  0  0  0  0  0  0
   30.4388   27.7294   37.3457 C   0  0  0  0  0  0  0  0  0  0  0  0
   30.4619   29.0832   37.0041 C   0  0  0  0  0  0  0  0  0  0  0  0
   30.7822   26.0120   39.0731 O   0  0  0  0  0  0  0  0  0  0  0  0
   30.4038   24.9178   38.2444 C   0  0  0  0  0  0  0  0  0  0  0  0
   24.5993   26.6531   36.5619 H   0  0  0  0  0  0  0  0  0  0  0  0
   23.2679   25.7740   35.7693 H   0  0  0  0  0  0  0  0  0  0  0  0
   31.6611   29.3833   33.5707 H   0  0  0  0  0  0  0  0  0  0  0  0
   31.0720   28.0635   31.5497 H   0  0  0  0  0  0  0  0  0  0  0  0
   28.8857   26.9761   31.3748 H   0  0  0  0  0  0  0  0  0  0  0  0
   25.6756   26.5399   31.6998 H   0  0  0  0  0  0  0  0  0  0  0  0
   27.1524   25.5356   31.7657 H   0  0  0  0  0  0  0  0  0  0  0  0
   31.2086   31.3740   35.1016 H   0  0  0  0  0  0  0  0  0  0  0  0
   29.4673   31.6492   35.5493 H   0  0  0  0  0  0  0  0  0  0  0  0
   31.8338   31.8502   37.3015 H   0  0  0  0  0  0  0  0  0  0  0  0
   30.0802   32.0384   37.7761 H   0  0  0  0  0  0  0  0  0  0  0  0
   31.5124   30.4803   39.8949 H   0  0  0  0  0  0  0  0  0  0  0  0
   32.9730   29.2235   41.9720 H   0  0  0  0  0  0  0  0  0  0  0  0
   31.2114   29.4106   42.5072 H   0  0  0  0  0  0  0  0  0  0  0  0
   31.3839   27.4592   43.8229 H   0  0  0  0  0  0  0  0  0  0  0  0
   33.1816   27.2682   43.2767 H   0  0  0  0  0  0  0  0  0  0  0  0
   30.6928   26.2964   41.8910 H   0  0  0  0  0  0  0  0  0  0  0  0
   32.4554   26.1092   41.3555 H   0  0  0  0  0  0  0  0  0  0  0  0
   30.1515   26.9942   36.6074 H   0  0  0  0  0  0  0  0  0  0  0  0
   30.4776   23.9783   38.8293 H   0  0  0  0  0  0  0  0  0  0  0  0
   31.0853   24.8471   37.3705 H   0  0  0  0  0  0  0  0  0  0  0  0
   29.3545   25.0427   37.9026 H   0  0  0  0  0  0  0  0  0  0  0  0
  1  2  1  0
  2  3  2  0
  2  4  1  0
  4  5  2  0
  5  6  1  0
  6  7  2  0
  7  8  1  0
  8  9  2  0
  9 10  1  0
 10 11  2  0
 11 12  1  0
 12 13  2  0
 13 14  1  0
  8 15  1  0
 15 16  1  0
 16 17  1  0
 17 18  1  0
 18 19  2  0
 19 20  1  0
 20 21  1  0
 21 22  1  0
 22 23  1  0
 23 24  1  0
 20 25  2  0
 25 26  1  0
 26 27  2  0
 25 28  1  0
 28 29  1  0
 13  4  1  0
 27 15  1  0
 12  7  1  0
 27 18  1  0
 24 21  1  0
  1 30  1  0
  1 31  1  0
  9 32  1  0
 10 33  1  0
 11 34  1  0
 14 35  1  0
 14 36  1  0
 16 37  1  0
 16 38  1  0
 17 39  1  0
 17 40  1  0
 19 41  1  0
 22 42  1  0
 22 43  1  0
 23 44  1  0
 23 45  1  0
 24 46  1  0
 24 47  1  0
 26 48  1  0
 29 49  1  0
 29 50  1  0
 29 51  1  0
M  END
$$$$
confid_6
     RDKit          3D

 51 55  0  0  0  0  0  0  0  0999 V2000
   24.2000   26.2400   35.6900 N   0  0  0  0  0  0  0  0  0  0  0  0
   24.8500   26.2800   34.4800 C   0  0  0  0  0  0  0  0  0  0  0  0
   24.3100   25.7400   33.5400 O   0  0  0  0  0  0  0  0  0  0  0  0
   26.1800   26.9700   34.4700 C   0  0  0  0  0  0  0  0  0  0  0  0
   26.6500   27.6000   35.5500 N   0  0  0  0  0  0  0  0  0  0  0  0
   27.7900   28.2700   35.6200 N   0  0  0  0  0  0  0  0  0  0  0  0
   28.5400   28.3000   34.5100 C   0  0  0  0  0  0  0  0  0  0  0  0
   29.7700   28.9400   34.5600 C   0  0  0  0  0  0  0  0  0  0  0  0
   30.7000   28.8900   33.5000 C   0  0  0  0  0  0  0  0  0  0  0  0
   30.3700   28.1400   32.3700 C   0  0  0  0  0  0  0  0  0  0  0  0
   29.1200   27.5200   32.2800 C   0  0  0  0  0  0  0  0  0  0  0  0
   28.2100   27.6100   33.3300 C   0  0  0  0  0  0  0  0  0  0  0  0
   26.9700   26.9700   33.3100 C   0  0  0  0  0  0  0  0  0  0  0  0
   26.5300   26.2400   32.2200 N   0  0  0  0  0  0  0  0  0  0  0  0
   30.1412   29.6804   35.7354 N   0  0  0  0  0  0  0  0  0  0  0  0
   31.3109   29.3912   36.5652 C   0  0  0  0  0  0  0  0  0  0  0  0
   31.2392   30.3783   37.7565 C   0  0  0  0  0  0  0  0  0  0  0  0
   30.0276   31.1931   37.4585 C   0  0  0  0  0  0  0  0  0  0  0  0
   29.5127   32.2629   38.1868 C   0  0  0  0  0  0  0  0  0  0  0  0
   28.3593   32.9167   37.7130 C   0  0  0  0  0  0  0  0  0  0  0  0
   27.8222   34.0141   38.4593 N   0  0  0  0  0  0  0  0  0  0  0  0
   26.6966   34.9639   38.3751 C   0  0  0  0  0  0  0  0  0  0  0  0
   27.0157   35.7024   39.6321 C   0  0  0  0  0  0  0  0  0  0  0  0
   28.1495   34.7347   39.7034 C   0  0  0  0  0  0  0  0  0  0  0  0
   27.7455   32.4903   36.5073 C   0  0  0  0  0  0  0  0  0  0  0  0
   28.3011   31.4040   35.7915 C   0  0  0  0  0  0  0  0  0  0  0  0
   29.4339   30.7692   36.3059 C   0  0  0  0  0  0  0  0  0  0  0  0
   26.5988   33.1604   36.0535 O   0  0  0  0  0  0  0  0  0  0  0  0
   25.8815   32.8226   34.8709 C   0  0  0  0  0  0  0  0  0  0  0  0
   24.5985   26.6546   36.5615 H   0  0  0  0  0  0  0  0  0  0  0  0
   23.2682   25.7734   35.7695 H   0  0  0  0  0  0  0  0  0  0  0  0
   31.6548   29.3963   33.5624 H   0  0  0  0  0  0  0  0  0  0  0  0
   31.0726   28.0620   31.5504 H   0  0  0  0  0  0  0  0  0  0  0  0
   28.8950   26.9549   31.3853 H   0  0  0  0  0  0  0  0  0  0  0  0
   26.6262   26.6232   31.2536 H   0  0  0  0  0  0  0  0  0  0  0  0
   26.3242   25.2204   32.3141 H   0  0  0  0  0  0  0  0  0  0  0  0
   31.2699   28.3402   36.9245 H   0  0  0  0  0  0  0  0  0  0  0  0
   32.2425   29.5545   35.9822 H   0  0  0  0  0  0  0  0  0  0  0  0
   31.1094   29.8351   38.7171 H   0  0  0  0  0  0  0  0  0  0  0  0
   32.1414   31.0258   37.7936 H   0  0  0  0  0  0  0  0  0  0  0  0
   29.9983   32.5828   39.1000 H   0  0  0  0  0  0  0  0  0  0  0  0
   25.7211   34.4311   38.4294 H   0  0  0  0  0  0  0  0  0  0  0  0
   26.7837   35.6053   37.4699 H   0  0  0  0  0  0  0  0  0  0  0  0
   26.2597   35.5522   40.4332 H   0  0  0  0  0  0  0  0  0  0  0  0
   27.3434   36.7498   39.4545 H   0  0  0  0  0  0  0  0  0  0  0  0
   29.1421   35.2317   39.6251 H   0  0  0  0  0  0  0  0  0  0  0  0
   28.0801   34.0581   40.5842 H   0  0  0  0  0  0  0  0  0  0  0  0
   27.8696   31.0625   34.8615 H   0  0  0  0  0  0  0  0  0  0  0  0
   25.5023   31.7810   34.9386 H   0  0  0  0  0  0  0  0  0  0  0  0
   26.5371   32.9345   33.9817 H   0  0  0  0  0  0  0  0  0  0  0  0
   25.0171   33.5093   34.7634 H   0  0  0  0  0  0  0  0  0  0  0  0
  1  2  1  0
  2  3  2  0
  2  4  1  0
  4  5  2  0
  5  6  1  0
  6  7  2  0
  7  8  1  0
  8  9  2  0
  9 10  1  0
 10 11  2  0
 11 12  1  0
 12 13  2  0
 13 14  1  0
  8 15  1  0
 15 16  1  0
 16 17  1  0
 17 18  1  0
 18 19  2  0
 19 20  1  0
 20 21  1  0
 21 22  1  0
 22 23  1  0
 23 24  1  0
 20 25  2  0
 25 26  1  0
 26 27  2  0
 25 28  1  0
 28 29  1  0
 13  4  1  0
 27 15  1  0
 12  7  1  0
 27 18  1  0
 24 21  1  0
  1 30  1  0
  1 31  1  0
  9 32  1  0
 10 33  1  0
 11 34  1  0
 14 35  1  0
 14 36  1  0
 16 37  1  0
 16 38  1  0
 17 39  1  0
 17 40  1  0
 19 41  1  0
 22 42  1  0
 22 43  1  0
 23 44  1  0
 23 45  1  0
 24 46  1  0
 24 47  1  0
 26 48  1  0
 29 49  1  0
 29 50  1  0
 29 51  1  0
M  END
$$$$
