confid_0
     RDKit          3D

 45 48  0  0  0  0  0  0  0  0999 V2000
   24.2000   26.2400   35.6900 N   0  0  0  0  0  0  0  0  0  0  0  0
   24.8500   26.2800   34.4800 C   0  0  0  0  0  0  0  0  0  0  0  0
   24.3100   25.7400   33.5400 O   0  0  0  0  0  0  0  0  0  0  0  0
   26.1800   26.9700   34.4700 C   0  0  0  0  0  0  0  0  0  0  0  0
   26.6500   27.6000   35.5500 N   0  0  0  0  0  0  0  0  0  0  0  0
   27.7900   28.2700   35.6200 N   0  0  0  0  0  0  0  0  0  0  0  0
   28.5400   28.3000   34.5100 C   0  0  0  0  0  0  0  0  0  0  0  0
   29.7700   28.9400   34.5600 C   0  0  0  0  0  0  0  0  0  0  0  0
   30.7000   28.8900   33.5000 C   0  0  0  0  0  0  0  0  0  0  0  0
   30.3700   28.1400   32.3700 C   0  0  0  0  0  0  0  0  0  0  0  0
   29.1200   27.5200   32.2800 C   0  0  0  0  0  0  0  0  0  0  0  0
   28.2100   27.6100   33.3300 C   0  0  0  0  0  0  0  0  0  0  0  0
   26.9700   26.9700   33.3100 C   0  0  0  0  0  0  0  0  0  0  0  0
   26.5300   26.2400   32.2200 N   0  0  0  0  0  0  0  0  0  0  0  0
   23.2121   25.2449   36.0304 C   0  0  0  0  0  0  0  0  0  0  0  0
   23.2505   24.0299   35.4171 N   0  0  0  0  0  0  0  0  0  0  0  0
   22.3706   23.0402   35.7030 C   0  0  0  0  0  0  0  0  0  0  0  0
   21.4015   23.2287   36.6892 C   0  0  0  0  0  0  0  0  0  0  0  0
   20.4170   22.1349   37.0186 C   0  0  0  0  0  0  0  0  0  0  0  0
   19.0531   22.7290   37.3935 C   0  0  0  0  0  0  0  0  0  0  0  0
   19.2198   23.7809   38.4516 C   0  0  0  0  0  0  0  0  0  0  0  0
   18.2838   23.9993   39.2677 O   0  0  0  0  0  0  0  0  0  0  0  0
   20.4368   24.5487   38.5126 N   0  0  0  0  0  0  0  0  0  0  0  0
   20.8240   25.1462   39.7955 C   0  0  0  0  0  0  0  0  0  0  0  0
   21.3762   24.4343   37.4161 C   0  0  0  0  0  0  0  0  0  0  0  0
   22.2279   25.4986   37.0175 C   0  0  0  0  0  0  0  0  0  0  0  0
   22.0474   26.8962   37.5596 C   0  0  0  0  0  0  0  0  0  0  0  0
   24.4427   26.9467   36.4199 H   0  0  0  0  0  0  0  0  0  0  0  0
   30.0498   29.4792   35.4573 H   0  0  0  0  0  0  0  0  0  0  0  0
   31.6569   29.3901   33.5753 H   0  0  0  0  0  0  0  0  0  0  0  0
   31.0715   28.0646   31.5492 H   0  0  0  0  0  0  0  0  0  0  0  0
   28.8856   26.9764   31.3746 H   0  0  0  0  0  0  0  0  0  0  0  0
   27.1523   25.5356   31.7657 H   0  0  0  0  0  0  0  0  0  0  0  0
   25.6752   26.5394   31.7002 H   0  0  0  0  0  0  0  0  0  0  0  0
   22.4347   22.1027   35.1659 H   0  0  0  0  0  0  0  0  0  0  0  0
   20.2833   21.4530   36.1506 H   0  0  0  0  0  0  0  0  0  0  0  0
   20.8123   21.5394   37.8700 H   0  0  0  0  0  0  0  0  0  0  0  0
   18.5853   23.1898   36.4969 H   0  0  0  0  0  0  0  0  0  0  0  0
   18.3881   21.9188   37.7630 H   0  0  0  0  0  0  0  0  0  0  0  0
   20.2739   26.0975   39.9508 H   0  0  0  0  0  0  0  0  0  0  0  0
   20.5804   24.4527   40.6287 H   0  0  0  0  0  0  0  0  0  0  0  0
   21.9174   25.3302   39.8395 H   0  0  0  0  0  0  0  0  0  0  0  0
   22.7447   27.0707   38.4050 H   0  0  0  0  0  0  0  0  0  0  0  0
   21.0023   27.0697   37.8864 H   0  0  0  0  0  0  0  0  0  0  0  0
   22.2410   27.6514   36.7690 H   0  0  0  0  0  0  0  0  0  0  0  0
  1  2  1  0
  2  3  2  0
  2  4  1  0
  4  5  2  0
  5  6  1  0
  6  7  2  0
  7  8  1  0
  8  9  2  0
  9 10  1  0
 10 11  2  0
 11 12  1  0
 12 13  2  0
 13 14  1  0
  1 15  1  0
 15 16  2  0
 16 17  1  0
 17 18  2  0
 18 19  1  0
 19 20  1  0
 20 21  1  0
 21 22  2  0
 21 23  1  0
 23 24  1  0
 23 25  1  0
 25 26  2  0
 26 27  1  0
 13  4  1  0
 26 15  1  0
 12  7  1  0
 25 18  1  0
  1 28  1  0
  8 29  1  0
  9 30  1  0
 10 31  1  0
 11 32  1  0
 14 33  1  0
 14 34  1  0
 17 35  1  0
 19 36  1  0
 19 37  1  0
 20 38  1  0
 20 39  1  0
 24 40  1  0
 24 41  1  0
 24 42  1  0
 27 43  1  0
 27 44  1  0
 27 45  1  0
M  END
$$$$
confid_1
     RDKit          3D

 45 48  0  0  0  0  0  0  0  0999 V2000
   24.2000   26.2400   35.6900 N   0  0  0  0  0  0  0  0  0  0  0  0
   24.8500   26.2800   34.4800 C   0  0  0  0  0  0  0  0  0  0  0  0
   24.3100   25.7400   33.5400 O   0  0  0  0  0  0  0  0  0  0  0  0
   26.1800   26.9700   34.4700 C   0  0  0  0  0  0  0  0  0  0  0  0
   26.6500   27.6000   35.5500 N   0  0  0  0  0  0  0  0  0  0  0  0
   27.7900   28.2700   35.6200 N   0  0  0  0  0  0  0  0  0  0  0  0
   28.5400   28.3000   34.5100 C   0  0  0  0  0  0  0  0  0  0  0  0
   29.7700   28.9400   34.5600 C   0  0  0  0  0  0  0  0  0  0  0  0
   30.7000   28.8900   33.5000 C   0  0  0  0  0  0  0  0  0  0  0  0
   30.3700   28.1400   32.3700 C   0  0  0  0  0  0  0  0  0  0  0  0
   29.1200   27.5200   32.2800 C   0  0  0  0  0  0  0  0  0  0  0  0
   28.2100   27.6100   33.3300 C   0  0  0  0  0  0  0  0  0  0  0  0
   26.9700   26.9700   33.3100 C   0  0  0  0  0  0  0  0  0  0  0  0
   26.5300   26.2400   32.2200 N   0  0  0  0  0  0  0  0  0  0  0  0
   22.7728   26.0747   35.8220 C   0  0  0  0  0  0  0  0  0  0  0  0
   21.9615   26.4499   34.7978 N   0  0  0  0  0  0  0  0  0  0  0  0
   20.6143   26.3370   34.8589 C   0  0  0  0  0  0  0  0  0  0  0  0
   19.9946   25.8974   36.0311 C   0  0  0  0  0  0  0  0  0  0  0  0
   18.5105   25.6087   36.0053 C   0  0  0  0  0  0  0  0  0  0  0  0
   17.8582   25.6859   37.3843 C   0  0  0  0  0  0  0  0  0  0  0  0
   18.7167   25.0185   38.4076 C   0  0  0  0  0  0  0  0  0  0  0  0
   18.1939   24.3090   39.3092 O   0  0  0  0  0  0  0  0  0  0  0  0
   20.1246   25.2927   38.4214 N   0  0  0  0  0  0  0  0  0  0  0  0
   20.7198   25.6444   39.7174 C   0  0  0  0  0  0  0  0  0  0  0  0
   20.7873   25.5783   37.1594 C   0  0  0  0  0  0  0  0  0  0  0  0
   22.2040   25.5498   37.0078 C   0  0  0  0  0  0  0  0  0  0  0  0
   23.0977   24.8653   38.0149 C   0  0  0  0  0  0  0  0  0  0  0  0
   24.7553   26.3611   36.5667 H   0  0  0  0  0  0  0  0  0  0  0  0
   30.0500   29.4789   35.4574 H   0  0  0  0  0  0  0  0  0  0  0  0
   31.6575   29.3889   33.5759 H   0  0  0  0  0  0  0  0  0  0  0  0
   31.0739   28.0595   31.5517 H   0  0  0  0  0  0  0  0  0  0  0  0
   28.8953   26.9543   31.3856 H   0  0  0  0  0  0  0  0  0  0  0  0
   26.3235   25.2205   32.3143 H   0  0  0  0  0  0  0  0  0  0  0  0
   26.6263   26.6230   31.2536 H   0  0  0  0  0  0  0  0  0  0  0  0
   20.0248   26.5906   33.9871 H   0  0  0  0  0  0  0  0  0  0  0  0
   18.3650   24.5857   35.5951 H   0  0  0  0  0  0  0  0  0  0  0  0
   17.9901   26.3215   35.3286 H   0  0  0  0  0  0  0  0  0  0  0  0
   16.8547   25.2086   37.3480 H   0  0  0  0  0  0  0  0  0  0  0  0
   17.7290   26.7510   37.6734 H   0  0  0  0  0  0  0  0  0  0  0  0
   19.9482   26.0546   40.4049 H   0  0  0  0  0  0  0  0  0  0  0  0
   21.1585   24.7445   40.1947 H   0  0  0  0  0  0  0  0  0  0  0  0
   21.4839   26.4401   39.6000 H   0  0  0  0  0  0  0  0  0  0  0  0
   23.4893   25.5994   38.7487 H   0  0  0  0  0  0  0  0  0  0  0  0
   22.5596   24.0447   38.5298 H   0  0  0  0  0  0  0  0  0  0  0  0
   23.9566   24.3748   37.5105 H   0  0  0  0  0  0  0  0  0  0  0  0
  1  2  1  0
  2  3  2  0
  2  4  1  0
  4  5  2  0
  5  6  1  0
  6  7  2  0
  7  8  1  0
  8  9  2  0
  9 10  1  0
 10 11  2  0
 11 12  1  0
 12 13  2  0
 13 14  1  0
  1 15  1  0
 15 16  2  0
 16 17  1  0
 17 18  2  0
 18 19  1  0
 19 20  1  0
 20 21  1  0
 21 22  2  0
 21 23  1  0
 23 24  1  0
 23 25  1  0
 25 26  2  0
 26 27  1  0
 13  4  1  0
 26 15  1  0
 12  7  1  0
 25 18  1  0
  1 28  1  0
  8 29  1  0
  9 30  1  0
 10 31  1  0
 11 32  1  0
 14 33  1  0
 14 34  1  0
 17 35  1  0
 19 36  1  0
 19 37  1  0
 20 38  1  0
 20 39  1  0
 24 40  1  0
 24 41  1  0
 24 42  1  0
 27 43  1  0
 27 44  1  0
 27 45  1  0
M  END
$$$$
confid_2
     RDKit          3D

 45 48  0  0  0  0  0  0  0  0999 V2000
   24.2000   26.2400   35.6900 N   0  0  0  0  0  0  0  0  0  0  0  0
   24.8500   26.2800   34.4800 C   0  0  0  0  0  0  0  0  0  0  0  0
   24.3100   25.7400   33.5400 O   0  0  0  0  0  0  0  0  0  0  0  0
   26.1800   26.9700   34.4700 C   0  0  0  0  0  0  0  0  0  0  0  0
   26.6500   27.6000   35.5500 N   0  0  0  0  0  0  0  0  0  0  0  0
   27.7900   28.2700   35.6200 N   0  0  0  0  0  0  0  0  0  0  0  0
   28.5400   28.3000   34.5100 C   0  0  0  0  0  0  0  0  0  0  0  0
   29.7700   28.9400   34.5600 C   0  0  0  0  0  0  0  0  0  0  0  0
   30.7000   28.8900   33.5000 C   0  0  0  0  0  0  0  0  0  0  0  0
   30.3700   28.1400   32.3700 C   0  0  0  0  0  0  0  0  0  0  0  0
   29.1200   27.5200   32.2800 C   0  0  0  0  0  0  0  0  0  0  0  0
   28.2100   27.6100   33.3300 C   0  0  0  0  0  0  0  0  0  0  0  0
   26.9700   26.9700   33.3100 C   0  0  0  0  0  0  0  0  0  0  0  0
   26.5300   26.2400   32.2200 N   0  0  0  0  0  0  0  0  0  0  0  0
   22.7725   26.0760   35.8206 C   0  0  0  0  0  0  0  0  0  0  0  0
   21.9610   26.4580   34.7963 N   0  0  0  0  0  0  0  0  0  0  0  0
   20.6115   26.3551   34.8572 C   0  0  0  0  0  0  0  0  0  0  0  0
   19.9975   25.8811   36.0173 C   0  0  0  0  0  0  0  0  0  0  0  0
   18.4963   25.7631   36.0992 C   0  0  0  0  0  0  0  0  0  0  0  0
   18.0941   24.5478   36.9445 C   0  0  0  0  0  0  0  0  0  0  0  0
   18.8075   24.5768   38.2652 C   0  0  0  0  0  0  0  0  0  0  0  0
   18.2703   24.0494   39.2766 O   0  0  0  0  0  0  0  0  0  0  0  0
   20.1093   25.1853   38.3627 N   0  0  0  0  0  0  0  0  0  0  0  0
   20.5481   25.6942   39.6669 C   0  0  0  0  0  0  0  0  0  0  0  0
   20.7865   25.5573   37.1376 C   0  0  0  0  0  0  0  0  0  0  0  0
   22.2009   25.5585   37.0093 C   0  0  0  0  0  0  0  0  0  0  0  0
   23.0876   24.9481   38.0680 C   0  0  0  0  0  0  0  0  0  0  0  0
   24.7563   26.3594   36.5661 H   0  0  0  0  0  0  0  0  0  0  0  0
   30.0500   29.4789   35.4574 H   0  0  0  0  0  0  0  0  0  0  0  0
   31.6575   29.3889   33.5759 H   0  0  0  0  0  0  0  0  0  0  0  0
   31.0739   28.0595   31.5517 H   0  0  0  0  0  0  0  0  0  0  0  0
   28.8953   26.9543   31.3856 H   0  0  0  0  0  0  0  0  0  0  0  0
   26.6263   26.6230   31.2536 H   0  0  0  0  0  0  0  0  0  0  0  0
   26.3235   25.2205   32.3143 H   0  0  0  0  0  0  0  0  0  0  0  0
   20.0182   26.6524   34.0022 H   0  0  0  0  0  0  0  0  0  0  0  0
   18.0870   26.6895   36.5576 H   0  0  0  0  0  0  0  0  0  0  0  0
   18.0554   25.6542   35.0843 H   0  0  0  0  0  0  0  0  0  0  0  0
   18.3641   23.6122   36.4089 H   0  0  0  0  0  0  0  0  0  0  0  0
   16.9944   24.5591   37.1051 H   0  0  0  0  0  0  0  0  0  0  0  0
   19.6932   26.1606   40.2020 H   0  0  0  0  0  0  0  0  0  0  0  0
   20.9437   24.8611   40.2842 H   0  0  0  0  0  0  0  0  0  0  0  0
   21.3229   26.4804   39.5517 H   0  0  0  0  0  0  0  0  0  0  0  0
   22.5488   24.1699   38.6453 H   0  0  0  0  0  0  0  0  0  0  0  0
   23.9519   24.4285   37.6036 H   0  0  0  0  0  0  0  0  0  0  0  0
   23.4641   25.7369   38.7517 H   0  0  0  0  0  0  0  0  0  0  0  0
  1  2  1  0
  2  3  2  0
  2  4  1  0
  4  5  2  0
  5  6  1  0
  6  7  2  0
  7  8  1  0
  8  9  2  0
  9 10  1  0
 10 11  2  0
 11 12  1  0
 12 13  2  0
 13 14  1  0
  1 15  1  0
 15 16  2  0
 16 17  1  0
 17 18  2  0
 18 19  1  0
 19 20  1  0
 20 21  1  0
 21 22  2  0
 21 23  1  0
 23 24  1  0
 23 25  1  0
 25 26  2  0
 26 27  1  0
 13  4  1  0
 26 15  1  0
 12  7  1  0
 25 18  1  0
  1 28  1  0
  8 29  1  0
  9 30  1  0
 10 31  1  0
 11 32  1  0
 14 33  1  0
 14 34  1  0
 17 35  1  0
 19 36  1  0
 19 37  1  0
 20 38  1  0
 20 39  1  0
 24 40  1  0
 24 41  1  0
 24 42  1  0
 27 43  1  0
 27 44  1  0
 27 45  1  0
M  END
$$$$
confid_3
     RDKit          3D

 45 48  0  0  0  0  0  0  0  0999 V2000
   24.2000   26.2400   35.6900 N   0  0  0  0  0  0  0  0  0  0  0  0
   24.8500   26.2800   34.4800 C   0  0  0  0  0  0  0  0  0  0  0  0
   24.3100   25.7400   33.5400 O   0  0  0  0  0  0  0  0  0  0  0  0
   26.1800   26.9700   34.4700 C   0  0  0  0  0  0  0  0  0  0  0  0
   26.6500   27.6000   35.5500 N   0  0  0  0  0  0  0  0  0  0  0  0
   27.7900   28.2700   35.6200 N   0  0  0  0  0  0  0  0  0  0  0  0
   28.5400   28.3000   34.5100 C   0  0  0  0  0  0  0  0  0  0  0  0
   29.7700   28.9400   34.5600 C   0  0  0  0  0  0  0  0  0  0  0  0
   30.7000   28.8900   33.5000 C   0  0  0  0  0  0  0  0  0  0  0  0
   30.3700   28.1400   32.3700 C   0  0  0  0  0  0  0  0  0  0  0  0
   29.1200   27.5200   32.2800 C   0  0  0  0  0  0  0  0  0  0  0  0
   28.2100   27.6100   33.3300 C   0  0  0  0  0  0  0  0  0  0  0  0
   26.9700   26.9700   33.3100 C   0  0  0  0  0  0  0  0  0  0  0  0
   26.5300   26.2400   32.2200 N   0  0  0  0  0  0  0  0  0  0  0  0
   23.2108   25.2464   36.0311 C   0  0  0  0  0  0  0  0  0  0  0  0
   23.2434   24.0351   35.4149 N   0  0  0  0  0  0  0  0  0  0  0  0
   22.3570   23.0522   35.6966 C   0  0  0  0  0  0  0  0  0  0  0  0
   21.4093   23.2241   36.7084 C   0  0  0  0  0  0  0  0  0  0  0  0
   20.3227   22.1854   36.8716 C   0  0  0  0  0  0  0  0  0  0  0  0
   19.7197   22.1604   38.2749 C   0  0  0  0  0  0  0  0  0  0  0  0
   19.4852   23.5499   38.7686 C   0  0  0  0  0  0  0  0  0  0  0  0
   18.4374   23.8256   39.4133 O   0  0  0  0  0  0  0  0  0  0  0  0
   20.5187   24.5310   38.6045 N   0  0  0  0  0  0  0  0  0  0  0  0
   20.8756   25.3237   39.7884 C   0  0  0  0  0  0  0  0  0  0  0  0
   21.3888   24.4332   37.4441 C   0  0  0  0  0  0  0  0  0  0  0  0
   22.2235   25.5047   37.0127 C   0  0  0  0  0  0  0  0  0  0  0  0
   22.0002   26.9239   37.4790 C   0  0  0  0  0  0  0  0  0  0  0  0
   24.4432   26.9454   36.4212 H   0  0  0  0  0  0  0  0  0  0  0  0
   30.0498   29.4792   35.4573 H   0  0  0  0  0  0  0  0  0  0  0  0
   31.6569   29.3901   33.5753 H   0  0  0  0  0  0  0  0  0  0  0  0
   31.0715   28.0646   31.5492 H   0  0  0  0  0  0  0  0  0  0  0  0
   28.8856   26.9764   31.3746 H   0  0  0  0  0  0  0  0  0  0  0  0
   25.6752   26.5394   31.7002 H   0  0  0  0  0  0  0  0  0  0  0  0
   27.1523   25.5356   31.7657 H   0  0  0  0  0  0  0  0  0  0  0  0
   22.3918   22.1326   35.1265 H   0  0  0  0  0  0  0  0  0  0  0  0
   19.5180   22.4097   36.1381 H   0  0  0  0  0  0  0  0  0  0  0  0
   20.7187   21.1724   36.6399 H   0  0  0  0  0  0  0  0  0  0  0  0
   18.7671   21.5874   38.2598 H   0  0  0  0  0  0  0  0  0  0  0  0
   20.4224   21.6532   38.9705 H   0  0  0  0  0  0  0  0  0  0  0  0
   20.6057   24.7805   40.7202 H   0  0  0  0  0  0  0  0  0  0  0  0
   21.9708   25.4940   39.8360 H   0  0  0  0  0  0  0  0  0  0  0  0
   20.3270   26.2876   39.7842 H   0  0  0  0  0  0  0  0  0  0  0  0
   22.6536   27.1554   38.3451 H   0  0  0  0  0  0  0  0  0  0  0  0
   22.2210   27.6458   36.6649 H   0  0  0  0  0  0  0  0  0  0  0  0
   20.9353   27.0947   37.7341 H   0  0  0  0  0  0  0  0  0  0  0  0
  1  2  1  0
  2  3  2  0
  2  4  1  0
  4  5  2  0
  5  6  1  0
  6  7  2  0
  7  8  1  0
  8  9  2  0
  9 10  1  0
 10 11  2  0
 11 12  1  0
 12 13  2  0
 13 14  1  0
  1 15  1  0
 15 16  2  0
 16 17  1  0
 17 18  2  0
 18 19  1  0
 19 20  1  0
 20 21  1  0
 21 22  2  0
 21 23  1  0
 23 24  1  0
 23 25  1  0
 25 26  2  0
 26 27  1  0
 13  4  1  0
 26 15  1  0
 12  7  1  0
 25 18  1  0
  1 28  1  0
  8 29  1  0
  9 30  1  0
 10 31  1  0
 11 32  1  0
 14 33  1  0
 14 34  1  0
 17 35  1  0
 19 36  1  0
 19 37  1  0
 20 38  1  0
 20 39  1  0
 24 40  1  0
 24 41  1  0
 24 42  1  0
 27 43  1  0
 27 44  1  0
 27 45  1  0
M  END
$$$$
