confid_0
     RDKit          3D

 48 52  0  0  0  0  0  0  0  0999 V2000
   24.2000   26.2400   35.6900 N   0  0  0  0  0  0  0  0  0  0  0  0
   24.8500   26.2800   34.4800 C   0  0  0  0  0  0  0  0  0  0  0  0
   24.3100   25.7400   33.5400 O   0  0  0  0  0  0  0  0  0  0  0  0
   26.1800   26.9700   34.4700 C   0  0  0  0  0  0  0  0  0  0  0  0
   26.6500   27.6000   35.5500 N   0  0  0  0  0  0  0  0  0  0  0  0
   27.7900   28.2700   35.6200 N   0  0  0  0  0  0  0  0  0  0  0  0
   28.5400   28.3000   34.5100 C   0  0  0  0  0  0  0  0  0  0  0  0
   29.7700   28.9400   34.5600 C   0  0  0  0  0  0  0  0  0  0  0  0
   30.7000   28.8900   33.5000 C   0  0  0  0  0  0  0  0  0  0  0  0
   30.3700   28.1400   32.3700 C   0  0  0  0  0  0  0  0  0  0  0  0
   29.1200   27.5200   32.2800 C   0  0  0  0  0  0  0  0  0  0  0  0
   28.2100   27.6100   33.3300 C   0  0  0  0  0  0  0  0  0  0  0  0
   26.9700   26.9700   33.3100 C   0  0  0  0  0  0  0  0  0  0  0  0
   26.5300   26.2400   32.2200 N   0  0  0  0  0  0  0  0  0  0  0  0
   23.2482   25.2252   36.0783 C   0  0  0  0  0  0  0  0  0  0  0  0
   23.1886   24.1247   35.3680 N   0  0  0  0  0  0  0  0  0  0  0  0
   22.4174   22.9495   35.6249 C   0  0  0  0  0  0  0  0  0  0  0  0
   22.6320   22.2216   36.7257 C   0  0  0  0  0  0  0  0  0  0  0  0
   23.4859   22.7826   37.8119 C   0  0  0  0  0  0  0  0  0  0  0  0
   22.4796   23.4284   38.6266 N   0  0  0  0  0  0  0  0  0  0  0  0
   21.3907   22.4954   38.5774 C   0  0  0  0  0  0  0  0  0  0  0  0
   20.4473   22.4909   39.4121 O   0  0  0  0  0  0  0  0  0  0  0  0
   21.4629   21.5827   37.4048 C   0  0  0  0  0  0  0  0  0  0  0  0
   22.1347   24.8198   38.4530 C   0  0  0  0  0  0  0  0  0  0  0  0
   21.4203   25.4175   39.5061 C   0  0  0  0  0  0  0  0  0  0  0  0
   20.8635   26.6856   39.3800 C   0  0  0  0  0  0  0  0  0  0  0  0
   21.0111   27.4014   38.1935 C   0  0  0  0  0  0  0  0  0  0  0  0
   20.3678   28.7485   38.0379 C   0  0  0  0  0  0  0  0  0  0  0  0
   21.7268   26.8363   37.1325 C   0  0  0  0  0  0  0  0  0  0  0  0
   22.3265   25.5622   37.2298 C   0  0  0  0  0  0  0  0  0  0  0  0
   24.3999   26.9877   36.3931 H   0  0  0  0  0  0  0  0  0  0  0  0
   30.0498   29.4792   35.4573 H   0  0  0  0  0  0  0  0  0  0  0  0
   31.6569   29.3900   33.5753 H   0  0  0  0  0  0  0  0  0  0  0  0
   31.0714   28.0646   31.5491 H   0  0  0  0  0  0  0  0  0  0  0  0
   28.8857   26.9765   31.3745 H   0  0  0  0  0  0  0  0  0  0  0  0
   27.1529   25.5369   31.7644 H   0  0  0  0  0  0  0  0  0  0  0  0
   25.6744   26.5386   31.7010 H   0  0  0  0  0  0  0  0  0  0  0  0
   21.6439   22.6654   34.9226 H   0  0  0  0  0  0  0  0  0  0  0  0
   23.9546   21.9500   38.3853 H   0  0  0  0  0  0  0  0  0  0  0  0
   24.3126   23.4580   37.5120 H   0  0  0  0  0  0  0  0  0  0  0  0
   21.7041   20.5472   37.7260 H   0  0  0  0  0  0  0  0  0  0  0  0
   20.5241   21.6215   36.8099 H   0  0  0  0  0  0  0  0  0  0  0  0
   21.2632   24.8730   40.4292 H   0  0  0  0  0  0  0  0  0  0  0  0
   20.2999   27.1018   40.2063 H   0  0  0  0  0  0  0  0  0  0  0  0
   20.2559   29.2496   39.0235 H   0  0  0  0  0  0  0  0  0  0  0  0
   20.9872   29.4049   37.3897 H   0  0  0  0  0  0  0  0  0  0  0  0
   19.3650   28.6269   37.5772 H   0  0  0  0  0  0  0  0  0  0  0  0
   21.8385   27.4126   36.2198 H   0  0  0  0  0  0  0  0  0  0  0  0
  1  2  1  0
  2  3  2  0
  2  4  1  0
  4  5  2  0
  5  6  1  0
  6  7  2  0
  7  8  1  0
  8  9  2  0
  9 10  1  0
 10 11  2  0
 11 12  1  0
 12 13  2  0
 13 14  1  0
  1 15  1  0
 15 16  2  0
 16 17  1  0
 17 18  2  0
 18 19  1  0
 19 20  1  0
 20 21  1  0
 21 22  2  0
 21 23  1  0
 20 24  1  0
 24 25  2  0
 25 26  1  0
 26 27  2  0
 27 28  1  0
 27 29  1  0
 29 30  2  0
 13  4  1  0
 30 15  1  0
 12  7  1  0
 23 18  1  0
 30 24  1  0
  1 31  1  0
  8 32  1  0
  9 33  1  0
 10 34  1  0
 11 35  1  0
 14 36  1  0
 14 37  1  0
 17 38  1  0
 19 39  1  0
 19 40  1  0
 23 41  1  0
 23 42  1  0
 25 43  1  0
 26 44  1  0
 28 45  1  0
 28 46  1  0
 28 47  1  0
 29 48  1  0
M  END
$$$$
confid_1
     RDKit          3D

 48 52  0  0  0  0  0  0  0  0999 V2000
   24.2000   26.2400   35.6900 N   0  0  0  0  0  0  0  0  0  0  0  0
   24.8500   26.2800   34.4800 C   0  0  0  0  0  0  0  0  0  0  0  0
   24.3100   25.7400   33.5400 O   0  0  0  0  0  0  0  0  0  0  0  0
   26.1800   26.9700   34.4700 C   0  0  0  0  0  0  0  0  0  0  0  0
   26.6500   27.6000   35.5500 N   0  0  0  0  0  0  0  0  0  0  0  0
   27.7900   28.2700   35.6200 N   0  0  0  0  0  0  0  0  0  0  0  0
   28.5400   28.3000   34.5100 C   0  0  0  0  0  0  0  0  0  0  0  0
   29.7700   28.9400   34.5600 C   0  0  0  0  0  0  0  0  0  0  0  0
   30.7000   28.8900   33.5000 C   0  0  0  0  0  0  0  0  0  0  0  0
   30.3700   28.1400   32.3700 C   0  0  0  0  0  0  0  0  0  0  0  0
   29.1200   27.5200   32.2800 C   0  0  0  0  0  0  0  0  0  0  0  0
   28.2100   27.6100   33.3300 C   0  0  0  0  0  0  0  0  0  0  0  0
   26.9700   26.9700   33.3100 C   0  0  0  0  0  0  0  0  0  0  0  0
   26.5300   26.2400   32.2200 N   0  0  0  0  0  0  0  0  0  0  0  0
   22.7696   26.1230   35.8492 C   0  0  0  0  0  0  0  0  0  0  0  0
   22.0083   26.3511   34.8065 N   0  0  0  0  0  0  0  0  0  0  0  0
   20.5815   26.4081   34.7519 C   0  0  0  0  0  0  0  0  0  0  0  0
   19.9100   27.3361   35.4416 C   0  0  0  0  0  0  0  0  0  0  0  0
   20.6294   28.1355   36.4744 C   0  0  0  0  0  0  0  0  0  0  0  0
   20.3926   27.3204   37.6458 N   0  0  0  0  0  0  0  0  0  0  0  0
   19.0341   26.8973   37.4630 C   0  0  0  0  0  0  0  0  0  0  0  0
   18.3118   26.4709   38.4028 O   0  0  0  0  0  0  0  0  0  0  0  0
   18.5912   26.9703   36.0445 C   0  0  0  0  0  0  0  0  0  0  0  0
   21.3257   26.3030   38.0692 C   0  0  0  0  0  0  0  0  0  0  0  0
   21.1740   25.8311   39.3845 C   0  0  0  0  0  0  0  0  0  0  0  0
   21.8834   24.7285   39.8482 C   0  0  0  0  0  0  0  0  0  0  0  0
   22.7758   24.0648   39.0076 C   0  0  0  0  0  0  0  0  0  0  0  0
   23.5077   22.8454   39.4867 C   0  0  0  0  0  0  0  0  0  0  0  0
   22.9554   24.5193   37.6970 C   0  0  0  0  0  0  0  0  0  0  0  0
   22.2717   25.6483   37.1970 C   0  0  0  0  0  0  0  0  0  0  0  0
   24.7679   26.2981   36.5660 H   0  0  0  0  0  0  0  0  0  0  0  0
   30.0500   29.4789   35.4574 H   0  0  0  0  0  0  0  0  0  0  0  0
   31.6575   29.3888   33.5759 H   0  0  0  0  0  0  0  0  0  0  0  0
   31.0739   28.0594   31.5517 H   0  0  0  0  0  0  0  0  0  0  0  0
   28.8954   26.9542   31.3856 H   0  0  0  0  0  0  0  0  0  0  0  0
   26.3235   25.2205   32.3142 H   0  0  0  0  0  0  0  0  0  0  0  0
   26.6264   26.6231   31.2536 H   0  0  0  0  0  0  0  0  0  0  0  0
   20.0499   25.6809   34.1511 H   0  0  0  0  0  0  0  0  0  0  0  0
   20.1282   29.1232   36.5977 H   0  0  0  0  0  0  0  0  0  0  0  0
   21.7023   28.3518   36.2955 H   0  0  0  0  0  0  0  0  0  0  0  0
   17.8492   27.7849   35.9053 H   0  0  0  0  0  0  0  0  0  0  0  0
   18.1975   25.9902   35.6960 H   0  0  0  0  0  0  0  0  0  0  0  0
   20.4679   26.3103   40.0514 H   0  0  0  0  0  0  0  0  0  0  0  0
   21.7226   24.3841   40.8624 H   0  0  0  0  0  0  0  0  0  0  0  0
   22.9819   21.9354   39.1308 H   0  0  0  0  0  0  0  0  0  0  0  0
   24.5470   22.8411   39.0945 H   0  0  0  0  0  0  0  0  0  0  0  0
   23.5605   22.8201   40.5961 H   0  0  0  0  0  0  0  0  0  0  0  0
   23.6596   23.9931   37.0612 H   0  0  0  0  0  0  0  0  0  0  0  0
  1  2  1  0
  2  3  2  0
  2  4  1  0
  4  5  2  0
  5  6  1  0
  6  7  2  0
  7  8  1  0
  8  9  2  0
  9 10  1  0
 10 11  2  0
 11 12  1  0
 12 13  2  0
 13 14  1  0
  1 15  1  0
 15 16  2  0
 16 17  1  0
 17 18  2  0
 18 19  1  0
 19 20  1  0
 20 21  1  0
 21 22  2  0
 21 23  1  0
 20 24  1  0
 24 25  2  0
 25 26  1  0
 26 27  2  0
 27 28  1  0
 27 29  1  0
 29 30  2  0
 13  4  1  0
 30 15  1  0
 12  7  1  0
 23 18  1  0
 30 24  1  0
  1 31  1  0
  8 32  1  0
  9 33  1  0
 10 34  1  0
 11 35  1  0
 14 36  1  0
 14 37  1  0
 17 38  1  0
 19 39  1  0
 19 40  1  0
 23 41  1  0
 23 42  1  0
 25 43  1  0
 26 44  1  0
 28 45  1  0
 28 46  1  0
 28 47  1  0
 29 48  1  0
M  END
$$$$
confid_2
     RDKit          3D

 48 52  0  0  0  0  0  0  0  0999 V2000
   24.2000   26.2400   35.6900 N   0  0  0  0  0  0  0  0  0  0  0  0
   24.8500   26.2800   34.4800 C   0  0  0  0  0  0  0  0  0  0  0  0
   24.3100   25.7400   33.5400 O   0  0  0  0  0  0  0  0  0  0  0  0
   26.1800   26.9700   34.4700 C   0  0  0  0  0  0  0  0  0  0  0  0
   26.6500   27.6000   35.5500 N   0  0  0  0  0  0  0  0  0  0  0  0
   27.7900   28.2700   35.6200 N   0  0  0  0  0  0  0  0  0  0  0  0
   28.5400   28.3000   34.5100 C   0  0  0  0  0  0  0  0  0  0  0  0
   29.7700   28.9400   34.5600 C   0  0  0  0  0  0  0  0  0  0  0  0
   30.7000   28.8900   33.5000 C   0  0  0  0  0  0  0  0  0  0  0  0
   30.3700   28.1400   32.3700 C   0  0  0  0  0  0  0  0  0  0  0  0
   29.1200   27.5200   32.2800 C   0  0  0  0  0  0  0  0  0  0  0  0
   28.2100   27.6100   33.3300 C   0  0  0  0  0  0  0  0  0  0  0  0
   26.9700   26.9700   33.3100 C   0  0  0  0  0  0  0  0  0  0  0  0
   26.5300   26.2400   32.2200 N   0  0  0  0  0  0  0  0  0  0  0  0
   23.4483   25.0851   36.1087 C   0  0  0  0  0  0  0  0  0  0  0  0
   24.1752   24.0652   36.5020 N   0  0  0  0  0  0  0  0  0  0  0  0
   23.8095   22.7876   37.0243 C   0  0  0  0  0  0  0  0  0  0  0  0
   23.0767   22.6641   38.1399 C   0  0  0  0  0  0  0  0  0  0  0  0
   22.4015   23.8662   38.6912 C   0  0  0  0  0  0  0  0  0  0  0  0
   21.1445   23.7864   37.9831 N   0  0  0  0  0  0  0  0  0  0  0  0
   20.8604   22.3789   37.9680 C   0  0  0  0  0  0  0  0  0  0  0  0
   19.7102   21.9003   37.7949 O   0  0  0  0  0  0  0  0  0  0  0  0
   22.0718   21.5534   38.2008 C   0  0  0  0  0  0  0  0  0  0  0  0
   20.8976   24.5343   36.7794 C   0  0  0  0  0  0  0  0  0  0  0  0
   19.5394   24.6884   36.4378 C   0  0  0  0  0  0  0  0  0  0  0  0
   19.1481   25.4180   35.3272 C   0  0  0  0  0  0  0  0  0  0  0  0
   20.1009   26.0222   34.5167 C   0  0  0  0  0  0  0  0  0  0  0  0
   19.6705   26.8766   33.3601 C   0  0  0  0  0  0  0  0  0  0  0  0
   21.4612   25.8962   34.8396 C   0  0  0  0  0  0  0  0  0  0  0  0
   21.9224   25.1209   35.9376 C   0  0  0  0  0  0  0  0  0  0  0  0
   24.3680   26.9775   36.4126 H   0  0  0  0  0  0  0  0  0  0  0  0
   30.0492   29.4810   35.4563 H   0  0  0  0  0  0  0  0  0  0  0  0
   31.6563   29.3915   33.5747 H   0  0  0  0  0  0  0  0  0  0  0  0
   31.0711   28.0650   31.5487 H   0  0  0  0  0  0  0  0  0  0  0  0
   28.8840   26.9764   31.3749 H   0  0  0  0  0  0  0  0  0  0  0  0
   27.1522   25.5433   31.7597 H   0  0  0  0  0  0  0  0  0  0  0  0
   25.6726   26.5372   31.7030 H   0  0  0  0  0  0  0  0  0  0  0  0
   24.1682   21.8968   36.5179 H   0  0  0  0  0  0  0  0  0  0  0  0
   22.9283   24.8325   38.5848 H   0  0  0  0  0  0  0  0  0  0  0  0
   22.2091   23.7178   39.7818 H   0  0  0  0  0  0  0  0  0  0  0  0
   22.1985   20.7876   37.4035 H   0  0  0  0  0  0  0  0  0  0  0  0
   22.0530   21.0894   39.2172 H   0  0  0  0  0  0  0  0  0  0  0  0
   18.7666   24.2416   37.0489 H   0  0  0  0  0  0  0  0  0  0  0  0
   18.0921   25.5269   35.1038 H   0  0  0  0  0  0  0  0  0  0  0  0
   18.8675   26.3550   32.7837 H   0  0  0  0  0  0  0  0  0  0  0  0
   20.5091   27.0829   32.6633 H   0  0  0  0  0  0  0  0  0  0  0  0
   19.2801   27.8427   33.7423 H   0  0  0  0  0  0  0  0  0  0  0  0
   22.1536   26.4353   34.2106 H   0  0  0  0  0  0  0  0  0  0  0  0
  1  2  1  0
  2  3  2  0
  2  4  1  0
  4  5  2  0
  5  6  1  0
  6  7  2  0
  7  8  1  0
  8  9  2  0
  9 10  1  0
 10 11  2  0
 11 12  1  0
 12 13  2  0
 13 14  1  0
  1 15  1  0
 15 16  2  0
 16 17  1  0
 17 18  2  0
 18 19  1  0
 19 20  1  0
 20 21  1  0
 21 22  2  0
 21 23  1  0
 20 24  1  0
 24 25  2  0
 25 26  1  0
 26 27  2  0
 27 28  1  0
 27 29  1  0
 29 30  2  0
 13  4  1  0
 30 15  1  0
 12  7  1  0
 23 18  1  0
 30 24  1  0
  1 31  1  0
  8 32  1  0
  9 33  1  0
 10 34  1  0
 11 35  1  0
 14 36  1  0
 14 37  1  0
 17 38  1  0
 19 39  1  0
 19 40  1  0
 23 41  1  0
 23 42  1  0
 25 43  1  0
 26 44  1  0
 28 45  1  0
 28 46  1  0
 28 47  1  0
 29 48  1  0
M  END
$$$$
confid_3
     RDKit          3D

 48 52  0  0  0  0  0  0  0  0999 V2000
   24.2000   26.2400   35.6900 N   0  0  0  0  0  0  0  0  0  0  0  0
   24.8500   26.2800   34.4800 C   0  0  0  0  0  0  0  0  0  0  0  0
   24.3100   25.7400   33.5400 O   0  0  0  0  0  0  0  0  0  0  0  0
   26.1800   26.9700   34.4700 C   0  0  0  0  0  0  0  0  0  0  0  0
   26.6500   27.6000   35.5500 N   0  0  0  0  0  0  0  0  0  0  0  0
   27.7900   28.2700   35.6200 N   0  0  0  0  0  0  0  0  0  0  0  0
   28.5400   28.3000   34.5100 C   0  0  0  0  0  0  0  0  0  0  0  0
   29.7700   28.9400   34.5600 C   0  0  0  0  0  0  0  0  0  0  0  0
   30.7000   28.8900   33.5000 C   0  0  0  0  0  0  0  0  0  0  0  0
   30.3700   28.1400   32.3700 C   0  0  0  0  0  0  0  0  0  0  0  0
   29.1200   27.5200   32.2800 C   0  0  0  0  0  0  0  0  0  0  0  0
   28.2100   27.6100   33.3300 C   0  0  0  0  0  0  0  0  0  0  0  0
   26.9700   26.9700   33.3100 C   0  0  0  0  0  0  0  0  0  0  0  0
   26.5300   26.2400   32.2200 N   0  0  0  0  0  0  0  0  0  0  0  0
   23.1231   25.3361   36.0196 C   0  0  0  0  0  0  0  0  0  0  0  0
   23.0284   24.2114   35.3516 N   0  0  0  0  0  0  0  0  0  0  0  0
   22.1204   23.1285   35.5668 C   0  0  0  0  0  0  0  0  0  0  0  0
   22.1341   22.4426   36.7151 C   0  0  0  0  0  0  0  0  0  0  0  0
   22.9233   22.9671   37.8658 C   0  0  0  0  0  0  0  0  0  0  0  0
   21.9126   23.7571   38.5361 N   0  0  0  0  0  0  0  0  0  0  0  0
   20.7351   22.9487   38.3966 C   0  0  0  0  0  0  0  0  0  0  0  0
   19.6958   23.1183   39.0877 O   0  0  0  0  0  0  0  0  0  0  0  0
   20.8359   21.9647   37.2852 C   0  0  0  0  0  0  0  0  0  0  0  0
   21.7501   25.1683   38.2817 C   0  0  0  0  0  0  0  0  0  0  0  0
   21.0149   25.8900   39.2381 C   0  0  0  0  0  0  0  0  0  0  0  0
   20.6129   27.2015   39.0075 C   0  0  0  0  0  0  0  0  0  0  0  0
   20.9313   27.8309   37.8036 C   0  0  0  0  0  0  0  0  0  0  0  0
   20.4772   29.2367   37.5304 C   0  0  0  0  0  0  0  0  0  0  0  0
   21.6750   27.1402   36.8403 C   0  0  0  0  0  0  0  0  0  0  0  0
   22.1256   25.8196   37.0499 C   0  0  0  0  0  0  0  0  0  0  0  0
   24.4385   26.9548   36.4154 H   0  0  0  0  0  0  0  0  0  0  0  0
   30.0493   29.4791   35.4575 H   0  0  0  0  0  0  0  0  0  0  0  0
   31.6569   29.3902   33.5750 H   0  0  0  0  0  0  0  0  0  0  0  0
   31.0713   28.0646   31.5491 H   0  0  0  0  0  0  0  0  0  0  0  0
   28.8858   26.9757   31.3751 H   0  0  0  0  0  0  0  0  0  0  0  0
   27.1512   25.5341   31.7672 H   0  0  0  0  0  0  0  0  0  0  0  0
   25.6765   26.5405   31.6989 H   0  0  0  0  0  0  0  0  0  0  0  0
   21.3837   22.9060   34.8066 H   0  0  0  0  0  0  0  0  0  0  0  0
   23.8465   23.5374   37.6298 H   0  0  0  0  0  0  0  0  0  0  0  0
   23.2322   22.1212   38.5222 H   0  0  0  0  0  0  0  0  0  0  0  0
   19.9773   22.0613   36.5828 H   0  0  0  0  0  0  0  0  0  0  0  0
   20.9275   20.9300   37.6815 H   0  0  0  0  0  0  0  0  0  0  0  0
   20.7206   25.4106   40.1664 H   0  0  0  0  0  0  0  0  0  0  0  0
   20.0341   27.7184   39.7640 H   0  0  0  0  0  0  0  0  0  0  0  0
   21.3513   29.8623   37.2447 H   0  0  0  0  0  0  0  0  0  0  0  0
   19.7407   29.2375   36.7006 H   0  0  0  0  0  0  0  0  0  0  0  0
   20.0047   29.6934   38.4259 H   0  0  0  0  0  0  0  0  0  0  0  0
   21.9280   27.6557   35.9187 H   0  0  0  0  0  0  0  0  0  0  0  0
  1  2  1  0
  2  3  2  0
  2  4  1  0
  4  5  2  0
  5  6  1  0
  6  7  2  0
  7  8  1  0
  8  9  2  0
  9 10  1  0
 10 11  2  0
 11 12  1  0
 12 13  2  0
 13 14  1  0
  1 15  1  0
 15 16  2  0
 16 17  1  0
 17 18  2  0
 18 19  1  0
 19 20  1  0
 20 21  1  0
 21 22  2  0
 21 23  1  0
 20 24  1  0
 24 25  2  0
 25 26  1  0
 26 27  2  0
 27 28  1  0
 27 29  1  0
 29 30  2  0
 13  4  1  0
 30 15  1  0
 12  7  1  0
 23 18  1  0
 30 24  1  0
  1 31  1  0
  8 32  1  0
  9 33  1  0
 10 34  1  0
 11 35  1  0
 14 36  1  0
 14 37  1  0
 17 38  1  0
 19 39  1  0
 19 40  1  0
 23 41  1  0
 23 42  1  0
 25 43  1  0
 26 44  1  0
 28 45  1  0
 28 46  1  0
 28 47  1  0
 29 48  1  0
M  END
$$$$
