confid_0
     RDKit          3D

 45 49  0  0  0  0  0  0  0  0999 V2000
   25.3300   26.2600   34.7600 N   0  0  0  0  0  0  0  0  0  0  0  0
   26.1200   25.9200   33.6900 C   0  0  0  0  0  0  0  0  0  0  0  0
   25.6300   25.1100   32.9400 O   0  0  0  0  0  0  0  0  0  0  0  0
   27.5200   26.3800   33.4600 C   0  0  0  0  0  0  0  0  0  0  0  0
   28.1600   26.6300   34.6100 N   0  0  0  0  0  0  0  0  0  0  0  0
   29.4800   26.8500   34.5700 N   0  0  0  0  0  0  0  0  0  0  0  0
   30.1900   26.7800   33.4400 C   0  0  0  0  0  0  0  0  0  0  0  0
   31.5600   27.0500   33.5000 C   0  0  0  0  0  0  0  0  0  0  0  0
   32.2700   27.2400   32.3100 C   0  0  0  0  0  0  0  0  0  0  0  0
   31.6100   27.2500   31.0800 C   0  0  0  0  0  0  0  0  0  0  0  0
   30.2700   26.8700   31.0600 C   0  0  0  0  0  0  0  0  0  0  0  0
   29.5100   26.6900   32.2300 C   0  0  0  0  0  0  0  0  0  0  0  0
   28.1400   26.4100   32.2000 C   0  0  0  0  0  0  0  0  0  0  0  0
   27.4300   26.1300   31.0500 N   0  0  0  0  0  0  0  0  0  0  0  0
   27.5778   24.8095   30.4199 C   0  0  0  0  0  0  0  0  0  0  0  0
   27.5333   24.9295   28.8990 C   0  0  0  0  0  0  0  0  0  0  0  0
   26.2921   25.6592   28.4760 C   0  0  0  0  0  0  0  0  0  0  0  0
   25.6434   25.3156   27.2786 C   0  0  0  0  0  0  0  0  0  0  0  0
   24.5017   26.0123   26.8776 C   0  0  0  0  0  0  0  0  0  0  0  0
   24.0268   27.0838   27.6433 C   0  0  0  0  0  0  0  0  0  0  0  0
   24.6665   27.4330   28.8346 C   0  0  0  0  0  0  0  0  0  0  0  0
   25.8003   26.7223   29.2618 C   0  0  0  0  0  0  0  0  0  0  0  0
   26.5141   27.1556   30.5205 C   0  0  0  0  0  0  0  0  0  0  0  0
   22.9107   27.7978   27.1950 O   0  0  0  0  0  0  0  0  0  0  0  0
   22.4200   27.6400   25.8612 C   0  0  0  0  0  0  0  0  0  0  0  0
   22.5151   26.1706   25.4306 C   0  0  0  0  0  0  0  0  0  0  0  0
   23.8201   25.6568   25.7092 O   0  0  0  0  0  0  0  0  0  0  0  0
   24.3716   25.8588   34.8761 H   0  0  0  0  0  0  0  0  0  0  0  0
   25.6645   26.9504   35.4682 H   0  0  0  0  0  0  0  0  0  0  0  0
   32.0668   27.1428   34.4530 H   0  0  0  0  0  0  0  0  0  0  0  0
   33.3285   27.4621   32.3494 H   0  0  0  0  0  0  0  0  0  0  0  0
   32.1497   27.4389   30.1609 H   0  0  0  0  0  0  0  0  0  0  0  0
   29.7863   26.8109   30.0940 H   0  0  0  0  0  0  0  0  0  0  0  0
   28.5431   24.3394   30.7119 H   0  0  0  0  0  0  0  0  0  0  0  0
   26.7569   24.1437   30.7623 H   0  0  0  0  0  0  0  0  0  0  0  0
   27.5598   23.9090   28.4582 H   0  0  0  0  0  0  0  0  0  0  0  0
   28.4224   25.4886   28.5380 H   0  0  0  0  0  0  0  0  0  0  0  0
   26.0146   24.5031   26.6662 H   0  0  0  0  0  0  0  0  0  0  0  0
   24.2917   28.2661   29.4167 H   0  0  0  0  0  0  0  0  0  0  0  0
   27.0951   28.0746   30.2904 H   0  0  0  0  0  0  0  0  0  0  0  0
   25.7596   27.4116   31.2954 H   0  0  0  0  0  0  0  0  0  0  0  0
   21.3670   27.9879   25.8091 H   0  0  0  0  0  0  0  0  0  0  0  0
   23.0342   28.2614   25.1748 H   0  0  0  0  0  0  0  0  0  0  0  0
   22.3015   26.0739   24.3455 H   0  0  0  0  0  0  0  0  0  0  0  0
   21.7650   25.5761   25.9951 H   0  0  0  0  0  0  0  0  0  0  0  0
  1  2  1  0
  2  3  2  0
  2  4  1  0
  4  5  2  0
  5  6  1  0
  6  7  2  0
  7  8  1  0
  8  9  2  0
  9 10  1  0
 10 11  2  0
 11 12  1  0
 12 13  2  0
 13 14  1  0
 14 15  1  0
 15 16  1  0
 16 17  1  0
 17 18  2  0
 18 19  1  0
 19 20  2  0
 20 21  1  0
 21 22  2  0
 22 23  1  0
 20 24  1  0
 24 25  1  0
 25 26  1  0
 26 27  1  0
 13  4  1  0
 23 14  1  0
 12  7  1  0
 22 17  1  0
 27 19  1  0
  1 28  1  0
  1 29  1  0
  8 30  1  0
  9 31  1  0
 10 32  1  0
 11 33  1  0
 15 34  1  0
 15 35  1  0
 16 36  1  0
 16 37  1  0
 18 38  1  0
 21 39  1  0
 23 40  1  0
 23 41  1  0
 25 42  1  0
 25 43  1  0
 26 44  1  0
 26 45  1  0
M  END
$$$$
confid_1
     RDKit          3D

 45 49  0  0  0  0  0  0  0  0999 V2000
   25.3300   26.2600   34.7600 N   0  0  0  0  0  0  0  0  0  0  0  0
   26.1200   25.9200   33.6900 C   0  0  0  0  0  0  0  0  0  0  0  0
   25.6300   25.1100   32.9400 O   0  0  0  0  0  0  0  0  0  0  0  0
   27.5200   26.3800   33.4600 C   0  0  0  0  0  0  0  0  0  0  0  0
   28.1600   26.6300   34.6100 N   0  0  0  0  0  0  0  0  0  0  0  0
   29.4800   26.8500   34.5700 N   0  0  0  0  0  0  0  0  0  0  0  0
   30.1900   26.7800   33.4400 C   0  0  0  0  0  0  0  0  0  0  0  0
   31.5600   27.0500   33.5000 C   0  0  0  0  0  0  0  0  0  0  0  0
   32.2700   27.2400   32.3100 C   0  0  0  0  0  0  0  0  0  0  0  0
   31.6100   27.2500   31.0800 C   0  0  0  0  0  0  0  0  0  0  0  0
   30.2700   26.8700   31.0600 C   0  0  0  0  0  0  0  0  0  0  0  0
   29.5100   26.6900   32.2300 C   0  0  0  0  0  0  0  0  0  0  0  0
   28.1400   26.4100   32.2000 C   0  0  0  0  0  0  0  0  0  0  0  0
   27.4300   26.1300   31.0500 N   0  0  0  0  0  0  0  0  0  0  0  0
   26.6190   27.2033   30.4481 C   0  0  0  0  0  0  0  0  0  0  0  0
   26.1383   26.8496   29.0345 C   0  0  0  0  0  0  0  0  0  0  0  0
   25.6153   25.4424   28.9902 C   0  0  0  0  0  0  0  0  0  0  0  0
   24.4750   25.1156   28.2396 C   0  0  0  0  0  0  0  0  0  0  0  0
   24.0333   23.7910   28.1865 C   0  0  0  0  0  0  0  0  0  0  0  0
   24.7515   22.7822   28.8422 C   0  0  0  0  0  0  0  0  0  0  0  0
   25.8873   23.1015   29.5909 C   0  0  0  0  0  0  0  0  0  0  0  0
   26.3190   24.4348   29.6730 C   0  0  0  0  0  0  0  0  0  0  0  0
   27.5641   24.7987   30.4348 C   0  0  0  0  0  0  0  0  0  0  0  0
   24.3173   21.4573   28.7318 O   0  0  0  0  0  0  0  0  0  0  0  0
   23.3395   21.0793   27.7592 C   0  0  0  0  0  0  0  0  0  0  0  0
   22.2654   22.1677   27.6349 C   0  0  0  0  0  0  0  0  0  0  0  0
   22.8767   23.4507   27.4776 O   0  0  0  0  0  0  0  0  0  0  0  0
   25.6645   26.9502   35.4683 H   0  0  0  0  0  0  0  0  0  0  0  0
   24.3717   25.8586   34.8762 H   0  0  0  0  0  0  0  0  0  0  0  0
   32.0668   27.1428   34.4530 H   0  0  0  0  0  0  0  0  0  0  0  0
   33.3285   27.4622   32.3495 H   0  0  0  0  0  0  0  0  0  0  0  0
   32.1496   27.4392   30.1610 H   0  0  0  0  0  0  0  0  0  0  0  0
   29.7863   26.8124   30.0932 H   0  0  0  0  0  0  0  0  0  0  0  0
   27.2175   28.1392   30.3916 H   0  0  0  0  0  0  0  0  0  0  0  0
   25.7366   27.3984   31.0955 H   0  0  0  0  0  0  0  0  0  0  0  0
   25.3556   27.5761   28.7250 H   0  0  0  0  0  0  0  0  0  0  0  0
   26.9892   26.9341   28.3245 H   0  0  0  0  0  0  0  0  0  0  0  0
   23.9273   25.8842   27.7083 H   0  0  0  0  0  0  0  0  0  0  0  0
   26.4357   22.3145   30.0936 H   0  0  0  0  0  0  0  0  0  0  0  0
   28.4278   24.7974   29.7373 H   0  0  0  0  0  0  0  0  0  0  0  0
   27.7548   24.0372   31.2241 H   0  0  0  0  0  0  0  0  0  0  0  0
   22.8761   20.1145   28.0537 H   0  0  0  0  0  0  0  0  0  0  0  0
   23.8404   20.9477   26.7761 H   0  0  0  0  0  0  0  0  0  0  0  0
   21.6447   22.1742   28.5566 H   0  0  0  0  0  0  0  0  0  0  0  0
   21.6076   21.9603   26.7650 H   0  0  0  0  0  0  0  0  0  0  0  0
  1  2  1  0
  2  3  2  0
  2  4  1  0
  4  5  2  0
  5  6  1  0
  6  7  2  0
  7  8  1  0
  8  9  2  0
  9 10  1  0
 10 11  2  0
 11 12  1  0
 12 13  2  0
 13 14  1  0
 14 15  1  0
 15 16  1  0
 16 17  1  0
 17 18  2  0
 18 19  1  0
 19 20  2  0
 20 21  1  0
 21 22  2  0
 22 23  1  0
 20 24  1  0
 24 25  1  0
 25 26  1  0
 26 27  1  0
 13  4  1  0
 23 14  1  0
 12  7  1  0
 22 17  1  0
 27 19  1  0
  1 28  1  0
  1 29  1  0
  8 30  1  0
  9 31  1  0
 10 32  1  0
 11 33  1  0
 15 34  1  0
 15 35  1  0
 16 36  1  0
 16 37  1  0
 18 38  1  0
 21 39  1  0
 23 40  1  0
 23 41  1  0
 25 42  1  0
 25 43  1  0
 26 44  1  0
 26 45  1  0
M  END
$$$$
confid_2
     RDKit          3D

 45 49  0  0  0  0  0  0  0  0999 V2000
   25.3300   26.2600   34.7600 N   0  0  0  0  0  0  0  0  0  0  0  0
   26.1200   25.9200   33.6900 C   0  0  0  0  0  0  0  0  0  0  0  0
   25.6300   25.1100   32.9400 O   0  0  0  0  0  0  0  0  0  0  0  0
   27.5200   26.3800   33.4600 C   0  0  0  0  0  0  0  0  0  0  0  0
   28.1600   26.6300   34.6100 N   0  0  0  0  0  0  0  0  0  0  0  0
   29.4800   26.8500   34.5700 N   0  0  0  0  0  0  0  0  0  0  0  0
   30.1900   26.7800   33.4400 C   0  0  0  0  0  0  0  0  0  0  0  0
   31.5600   27.0500   33.5000 C   0  0  0  0  0  0  0  0  0  0  0  0
   32.2700   27.2400   32.3100 C   0  0  0  0  0  0  0  0  0  0  0  0
   31.6100   27.2500   31.0800 C   0  0  0  0  0  0  0  0  0  0  0  0
   30.2700   26.8700   31.0600 C   0  0  0  0  0  0  0  0  0  0  0  0
   29.5100   26.6900   32.2300 C   0  0  0  0  0  0  0  0  0  0  0  0
   28.1400   26.4100   32.2000 C   0  0  0  0  0  0  0  0  0  0  0  0
   27.4300   26.1300   31.0500 N   0  0  0  0  0  0  0  0  0  0  0  0
   27.6574   24.8556   30.3565 C   0  0  0  0  0  0  0  0  0  0  0  0
   26.3623   24.3580   29.7232 C   0  0  0  0  0  0  0  0  0  0  0  0
   25.7557   25.4250   28.8576 C   0  0  0  0  0  0  0  0  0  0  0  0
   24.9927   25.0623   27.7351 C   0  0  0  0  0  0  0  0  0  0  0  0
   24.4016   26.0473   26.9419 C   0  0  0  0  0  0  0  0  0  0  0  0
   24.5288   27.3976   27.2870 C   0  0  0  0  0  0  0  0  0  0  0  0
   25.2832   27.7687   28.4018 C   0  0  0  0  0  0  0  0  0  0  0  0
   25.9006   26.7887   29.1966 C   0  0  0  0  0  0  0  0  0  0  0  0
   26.6749   27.2234   30.4194 C   0  0  0  0  0  0  0  0  0  0  0  0
   23.8877   28.3630   26.5038 O   0  0  0  0  0  0  0  0  0  0  0  0
   22.8966   27.9940   25.5415 C   0  0  0  0  0  0  0  0  0  0  0  0
   23.2999   26.6927   24.8359 C   0  0  0  0  0  0  0  0  0  0  0  0
   23.6736   25.7034   25.7982 O   0  0  0  0  0  0  0  0  0  0  0  0
   25.6645   26.9503   35.4682 H   0  0  0  0  0  0  0  0  0  0  0  0
   24.3717   25.8586   34.8762 H   0  0  0  0  0  0  0  0  0  0  0  0
   32.0667   27.1429   34.4530 H   0  0  0  0  0  0  0  0  0  0  0  0
   33.3284   27.4628   32.3495 H   0  0  0  0  0  0  0  0  0  0  0  0
   32.1491   27.4417   30.1612 H   0  0  0  0  0  0  0  0  0  0  0  0
   29.7884   26.8240   30.0927 H   0  0  0  0  0  0  0  0  0  0  0  0
   28.4234   24.9925   29.5636 H   0  0  0  0  0  0  0  0  0  0  0  0
   28.0276   24.0846   31.0684 H   0  0  0  0  0  0  0  0  0  0  0  0
   25.6358   24.0791   30.5148 H   0  0  0  0  0  0  0  0  0  0  0  0
   26.5860   23.4491   29.1228 H   0  0  0  0  0  0  0  0  0  0  0  0
   24.8679   24.0195   27.4700 H   0  0  0  0  0  0  0  0  0  0  0  0
   25.3748   28.8172   28.6581 H   0  0  0  0  0  0  0  0  0  0  0  0
   27.3806   28.0344   30.1348 H   0  0  0  0  0  0  0  0  0  0  0  0
   25.9512   27.6373   31.1547 H   0  0  0  0  0  0  0  0  0  0  0  0
   21.9271   27.8406   26.0624 H   0  0  0  0  0  0  0  0  0  0  0  0
   22.7760   28.8113   24.7999 H   0  0  0  0  0  0  0  0  0  0  0  0
   22.4577   26.3129   24.2202 H   0  0  0  0  0  0  0  0  0  0  0  0
   24.1658   26.8930   24.1690 H   0  0  0  0  0  0  0  0  0  0  0  0
  1  2  1  0
  2  3  2  0
  2  4  1  0
  4  5  2  0
  5  6  1  0
  6  7  2  0
  7  8  1  0
  8  9  2  0
  9 10  1  0
 10 11  2  0
 11 12  1  0
 12 13  2  0
 13 14  1  0
 14 15  1  0
 15 16  1  0
 16 17  1  0
 17 18  2  0
 18 19  1  0
 19 20  2  0
 20 21  1  0
 21 22  2  0
 22 23  1  0
 20 24  1  0
 24 25  1  0
 25 26  1  0
 26 27  1  0
 13  4  1  0
 23 14  1  0
 12  7  1  0
 22 17  1  0
 27 19  1  0
  1 28  1  0
  1 29  1  0
  8 30  1  0
  9 31  1  0
 10 32  1  0
 11 33  1  0
 15 34  1  0
 15 35  1  0
 16 36  1  0
 16 37  1  0
 18 38  1  0
 21 39  1  0
 23 40  1  0
 23 41  1  0
 25 42  1  0
 25 43  1  0
 26 44  1  0
 26 45  1  0
M  END
$$$$
confid_3
     RDKit          3D

 45 49  0  0  0  0  0  0  0  0999 V2000
   25.3300   26.2600   34.7600 N   0  0  0  0  0  0  0  0  0  0  0  0
   26.1200   25.9200   33.6900 C   0  0  0  0  0  0  0  0  0  0  0  0
   25.6300   25.1100   32.9400 O   0  0  0  0  0  0  0  0  0  0  0  0
   27.5200   26.3800   33.4600 C   0  0  0  0  0  0  0  0  0  0  0  0
   28.1600   26.6300   34.6100 N   0  0  0  0  0  0  0  0  0  0  0  0
   29.4800   26.8500   34.5700 N   0  0  0  0  0  0  0  0  0  0  0  0
   30.1900   26.7800   33.4400 C   0  0  0  0  0  0  0  0  0  0  0  0
   31.5600   27.0500   33.5000 C   0  0  0  0  0  0  0  0  0  0  0  0
   32.2700   27.2400   32.3100 C   0  0  0  0  0  0  0  0  0  0  0  0
   31.6100   27.2500   31.0800 C   0  0  0  0  0  0  0  0  0  0  0  0
   30.2700   26.8700   31.0600 C   0  0  0  0  0  0  0  0  0  0  0  0
   29.5100   26.6900   32.2300 C   0  0  0  0  0  0  0  0  0  0  0  0
   28.1400   26.4100   32.2000 C   0  0  0  0  0  0  0  0  0  0  0  0
   27.4300   26.1300   31.0500 N   0  0  0  0  0  0  0  0  0  0  0  0
   26.7870   27.2181   30.3134 C   0  0  0  0  0  0  0  0  0  0  0  0
   25.3758   26.7971   29.9149 C   0  0  0  0  0  0  0  0  0  0  0  0
   25.3623   25.4332   29.2725 C   0  0  0  0  0  0  0  0  0  0  0  0
   24.2752   25.0737   28.4584 C   0  0  0  0  0  0  0  0  0  0  0  0
   24.2055   23.7952   27.9024 C   0  0  0  0  0  0  0  0  0  0  0  0
   25.2285   22.8698   28.1368 C   0  0  0  0  0  0  0  0  0  0  0  0
   26.2991   23.2035   28.9680 C   0  0  0  0  0  0  0  0  0  0  0  0
   26.3722   24.4792   29.5510 C   0  0  0  0  0  0  0  0  0  0  0  0
   27.5641   24.8134   30.4167 C   0  0  0  0  0  0  0  0  0  0  0  0
   25.1596   21.6116   27.5298 O   0  0  0  0  0  0  0  0  0  0  0  0
   24.2289   21.3500   26.4762 C   0  0  0  0  0  0  0  0  0  0  0  0
   22.8940   22.0503   26.7614 C   0  0  0  0  0  0  0  0  0  0  0  0
   23.1176   23.4194   27.1077 O   0  0  0  0  0  0  0  0  0  0  0  0
   25.6645   26.9502   35.4683 H   0  0  0  0  0  0  0  0  0  0  0  0
   24.3715   25.8589   34.8759 H   0  0  0  0  0  0  0  0  0  0  0  0
   32.0668   27.1428   34.4530 H   0  0  0  0  0  0  0  0  0  0  0  0
   33.3285   27.4621   32.3494 H   0  0  0  0  0  0  0  0  0  0  0  0
   32.1498   27.4389   30.1610 H   0  0  0  0  0  0  0  0  0  0  0  0
   29.7894   26.8119   30.0924 H   0  0  0  0  0  0  0  0  0  0  0  0
   26.7283   28.1398   30.9346 H   0  0  0  0  0  0  0  0  0  0  0  0
   27.3822   27.4499   29.4033 H   0  0  0  0  0  0  0  0  0  0  0  0
   24.9607   27.5558   29.2161 H   0  0  0  0  0  0  0  0  0  0  0  0
   24.7317   26.7704   30.8199 H   0  0  0  0  0  0  0  0  0  0  0  0
   23.4766   25.7805   28.2682 H   0  0  0  0  0  0  0  0  0  0  0  0
   27.0793   22.4744   29.1501 H   0  0  0  0  0  0  0  0  0  0  0  0
   28.4797   24.7984   29.7885 H   0  0  0  0  0  0  0  0  0  0  0  0
   27.6671   24.0299   31.1999 H   0  0  0  0  0  0  0  0  0  0  0  0
   24.6464   21.7361   25.5216 H   0  0  0  0  0  0  0  0  0  0  0  0
   24.0750   20.2548   26.3796 H   0  0  0  0  0  0  0  0  0  0  0  0
   22.2336   21.9952   25.8707 H   0  0  0  0  0  0  0  0  0  0  0  0
   22.3893   21.5410   27.6103 H   0  0  0  0  0  0  0  0  0  0  0  0
  1  2  1  0
  2  3  2  0
  2  4  1  0
  4  5  2  0
  5  6  1  0
  6  7  2  0
  7  8  1  0
  8  9  2  0
  9 10  1  0
 10 11  2  0
 11 12  1  0
 12 13  2  0
 13 14  1  0
 14 15  1  0
 15 16  1  0
 16 17  1  0
 17 18  2  0
 18 19  1  0
 19 20  2  0
 20 21  1  0
 21 22  2  0
 22 23  1  0
 20 24  1  0
 24 25  1  0
 25 26  1  0
 26 27  1  0
 13  4  1  0
 23 14  1  0
 12  7  1  0
 22 17  1  0
 27 19  1  0
  1 28  1  0
  1 29  1  0
  8 30  1  0
  9 31  1  0
 10 32  1  0
 11 33  1  0
 15 34  1  0
 15 35  1  0
 16 36  1  0
 16 37  1  0
 18 38  1  0
 21 39  1  0
 23 40  1  0
 23 41  1  0
 25 42  1  0
 25 43  1  0
 26 44  1  0
 26 45  1  0
M  END
$$$$
confid_4
     RDKit          3D

 45 49  0  0  0  0  0  0  0  0999 V2000
   25.3300   26.2600   34.7600 N   0  0  0  0  0  0  0  0  0  0  0  0
   26.1200   25.9200   33.6900 C   0  0  0  0  0  0  0  0  0  0  0  0
   25.6300   25.1100   32.9400 O   0  0  0  0  0  0  0  0  0  0  0  0
   27.5200   26.3800   33.4600 C   0  0  0  0  0  0  0  0  0  0  0  0
   28.1600   26.6300   34.6100 N   0  0  0  0  0  0  0  0  0  0  0  0
   29.4800   26.8500   34.5700 N   0  0  0  0  0  0  0  0  0  0  0  0
   30.1900   26.7800   33.4400 C   0  0  0  0  0  0  0  0  0  0  0  0
   31.5600   27.0500   33.5000 C   0  0  0  0  0  0  0  0  0  0  0  0
   32.2700   27.2400   32.3100 C   0  0  0  0  0  0  0  0  0  0  0  0
   31.6100   27.2500   31.0800 C   0  0  0  0  0  0  0  0  0  0  0  0
   30.2700   26.8700   31.0600 C   0  0  0  0  0  0  0  0  0  0  0  0
   29.5100   26.6900   32.2300 C   0  0  0  0  0  0  0  0  0  0  0  0
   28.1400   26.4100   32.2000 C   0  0  0  0  0  0  0  0  0  0  0  0
   27.4300   26.1300   31.0500 N   0  0  0  0  0  0  0  0  0  0  0  0
   27.7291   24.9252   30.2698 C   0  0  0  0  0  0  0  0  0  0  0  0
   26.4293   24.2506   29.8400 C   0  0  0  0  0  0  0  0  0  0  0  0
   25.4563   25.2369   29.2462 C   0  0  0  0  0  0  0  0  0  0  0  0
   24.4218   24.7607   28.4234 C   0  0  0  0  0  0  0  0  0  0  0  0
   23.4703   25.6426   27.9082 C   0  0  0  0  0  0  0  0  0  0  0  0
   23.5528   27.0100   28.1919 C   0  0  0  0  0  0  0  0  0  0  0  0
   24.5578   27.4924   29.0320 C   0  0  0  0  0  0  0  0  0  0  0  0
   25.5097   26.6138   29.5749 C   0  0  0  0  0  0  0  0  0  0  0  0
   26.6004   27.1809   30.4523 C   0  0  0  0  0  0  0  0  0  0  0  0
   22.6158   27.8801   27.6250 O   0  0  0  0  0  0  0  0  0  0  0  0
   21.7591   27.4524   26.5630 C   0  0  0  0  0  0  0  0  0  0  0  0
   21.3012   26.0075   26.7997 C   0  0  0  0  0  0  0  0  0  0  0  0
   22.4239   25.1765   27.1055 O   0  0  0  0  0  0  0  0  0  0  0  0
   25.6645   26.9503   35.4682 H   0  0  0  0  0  0  0  0  0  0  0  0
   24.3716   25.8588   34.8760 H   0  0  0  0  0  0  0  0  0  0  0  0
   32.0667   27.1430   34.4530 H   0  0  0  0  0  0  0  0  0  0  0  0
   33.3283   27.4631   32.3495 H   0  0  0  0  0  0  0  0  0  0  0  0
   32.1489   27.4432   30.1613 H   0  0  0  0  0  0  0  0  0  0  0  0
   29.7896   26.8314   30.0927 H   0  0  0  0  0  0  0  0  0  0  0  0
   28.3112   25.2008   29.3643 H   0  0  0  0  0  0  0  0  0  0  0  0
   28.3310   24.2048   30.8674 H   0  0  0  0  0  0  0  0  0  0  0  0
   25.9551   23.7636   30.7178 H   0  0  0  0  0  0  0  0  0  0  0  0
   26.6694   23.4574   29.0986 H   0  0  0  0  0  0  0  0  0  0  0  0
   24.3467   23.7046   28.1945 H   0  0  0  0  0  0  0  0  0  0  0  0
   24.6042   28.5521   29.2525 H   0  0  0  0  0  0  0  0  0  0  0  0
   27.2467   27.8476   29.8419 H   0  0  0  0  0  0  0  0  0  0  0  0
   26.1292   27.7921   31.2538 H   0  0  0  0  0  0  0  0  0  0  0  0
   20.8805   28.1281   26.4993 H   0  0  0  0  0  0  0  0  0  0  0  0
   22.3186   27.5051   25.6044 H   0  0  0  0  0  0  0  0  0  0  0  0
   20.5921   25.9854   27.6550 H   0  0  0  0  0  0  0  0  0  0  0  0
   20.7836   25.6163   25.8988 H   0  0  0  0  0  0  0  0  0  0  0  0
  1  2  1  0
  2  3  2  0
  2  4  1  0
  4  5  2  0
  5  6  1  0
  6  7  2  0
  7  8  1  0
  8  9  2  0
  9 10  1  0
 10 11  2  0
 11 12  1  0
 12 13  2  0
 13 14  1  0
 14 15  1  0
 15 16  1  0
 16 17  1  0
 17 18  2  0
 18 19  1  0
 19 20  2  0
 20 21  1  0
 21 22  2  0
 22 23  1  0
 20 24  1  0
 24 25  1  0
 25 26  1  0
 26 27  1  0
 13  4  1  0
 23 14  1  0
 12  7  1  0
 22 17  1  0
 27 19  1  0
  1 28  1  0
  1 29  1  0
  8 30  1  0
  9 31  1  0
 10 32  1  0
 11 33  1  0
 15 34  1  0
 15 35  1  0
 16 36  1  0
 16 37  1  0
 18 38  1  0
 21 39  1  0
 23 40  1  0
 23 41  1  0
 25 42  1  0
 25 43  1  0
 26 44  1  0
 26 45  1  0
M  END
$$$$
confid_5
     RDKit          3D

 45 49  0  0  0  0  0  0  0  0999 V2000
   25.3300   26.2600   34.7600 N   0  0  0  0  0  0  0  0  0  0  0  0
   26.1200   25.9200   33.6900 C   0  0  0  0  0  0  0  0  0  0  0  0
   25.6300   25.1100   32.9400 O   0  0  0  0  0  0  0  0  0  0  0  0
   27.5200   26.3800   33.4600 C   0  0  0  0  0  0  0  0  0  0  0  0
   28.1600   26.6300   34.6100 N   0  0  0  0  0  0  0  0  0  0  0  0
   29.4800   26.8500   34.5700 N   0  0  0  0  0  0  0  0  0  0  0  0
   30.1900   26.7800   33.4400 C   0  0  0  0  0  0  0  0  0  0  0  0
   31.5600   27.0500   33.5000 C   0  0  0  0  0  0  0  0  0  0  0  0
   32.2700   27.2400   32.3100 C   0  0  0  0  0  0  0  0  0  0  0  0
   31.6100   27.2500   31.0800 C   0  0  0  0  0  0  0  0  0  0  0  0
   30.2700   26.8700   31.0600 C   0  0  0  0  0  0  0  0  0  0  0  0
   29.5100   26.6900   32.2300 C   0  0  0  0  0  0  0  0  0  0  0  0
   28.1400   26.4100   32.2000 C   0  0  0  0  0  0  0  0  0  0  0  0
   27.4300   26.1300   31.0500 N   0  0  0  0  0  0  0  0  0  0  0  0
   27.7036   24.8945   30.3073 C   0  0  0  0  0  0  0  0  0  0  0  0
   26.4006   24.3019   29.7813 C   0  0  0  0  0  0  0  0  0  0  0  0
   25.5913   25.3353   29.0452 C   0  0  0  0  0  0  0  0  0  0  0  0
   24.6653   24.9187   28.0739 C   0  0  0  0  0  0  0  0  0  0  0  0
   23.8638   25.8557   27.4195 C   0  0  0  0  0  0  0  0  0  0  0  0
   23.9914   27.2174   27.7145 C   0  0  0  0  0  0  0  0  0  0  0  0
   24.8857   27.6407   28.6999 C   0  0  0  0  0  0  0  0  0  0  0  0
   25.6882   26.7074   29.3771 C   0  0  0  0  0  0  0  0  0  0  0  0
   26.6513   27.2090   30.4288 C   0  0  0  0  0  0  0  0  0  0  0  0
   23.2114   28.1415   27.0108 O   0  0  0  0  0  0  0  0  0  0  0  0
   22.5011   27.7609   25.8292 C   0  0  0  0  0  0  0  0  0  0  0  0
   21.9181   26.3512   25.9917 C   0  0  0  0  0  0  0  0  0  0  0  0
   22.9235   25.4514   26.4659 O   0  0  0  0  0  0  0  0  0  0  0  0
   25.6646   26.9500   35.4685 H   0  0  0  0  0  0  0  0  0  0  0  0
   24.3708   25.8605   34.8748 H   0  0  0  0  0  0  0  0  0  0  0  0
   32.0668   27.1430   34.4530 H   0  0  0  0  0  0  0  0  0  0  0  0
   33.3283   27.4631   32.3495 H   0  0  0  0  0  0  0  0  0  0  0  0
   32.1490   27.4428   30.1613 H   0  0  0  0  0  0  0  0  0  0  0  0
   29.7893   26.8299   30.0927 H   0  0  0  0  0  0  0  0  0  0  0  0
   28.3759   25.1128   29.4500 H   0  0  0  0  0  0  0  0  0  0  0  0
   28.2028   24.1444   30.9608 H   0  0  0  0  0  0  0  0  0  0  0  0
   25.7976   23.9081   30.6263 H   0  0  0  0  0  0  0  0  0  0  0  0
   26.6443   23.4512   29.1076 H   0  0  0  0  0  0  0  0  0  0  0  0
   24.5566   23.8676   27.8357 H   0  0  0  0  0  0  0  0  0  0  0  0
   24.9640   28.6964   28.9297 H   0  0  0  0  0  0  0  0  0  0  0  0
   26.0647   27.7398   31.2111 H   0  0  0  0  0  0  0  0  0  0  0  0
   27.3503   27.9383   29.9645 H   0  0  0  0  0  0  0  0  0  0  0  0
   23.2029   27.7685   24.9673 H   0  0  0  0  0  0  0  0  0  0  0  0
   21.6888   28.4918   25.6320 H   0  0  0  0  0  0  0  0  0  0  0  0
   21.0859   26.3836   26.7278 H   0  0  0  0  0  0  0  0  0  0  0  0
   21.5200   25.9863   25.0215 H   0  0  0  0  0  0  0  0  0  0  0  0
  1  2  1  0
  2  3  2  0
  2  4  1  0
  4  5  2  0
  5  6  1  0
  6  7  2  0
  7  8  1  0
  8  9  2  0
  9 10  1  0
 10 11  2  0
 11 12  1  0
 12 13  2  0
 13 14  1  0
 14 15  1  0
 15 16  1  0
 16 17  1  0
 17 18  2  0
 18 19  1  0
 19 20  2  0
 20 21  1  0
 21 22  2  0
 22 23  1  0
 20 24  1  0
 24 25  1  0
 25 26  1  0
 26 27  1  0
 13  4  1  0
 23 14  1  0
 12  7  1  0
 22 17  1  0
 27 19  1  0
  1 28  1  0
  1 29  1  0
  8 30  1  0
  9 31  1  0
 10 32  1  0
 11 33  1  0
 15 34  1  0
 15 35  1  0
 16 36  1  0
 16 37  1  0
 18 38  1  0
 21 39  1  0
 23 40  1  0
 23 41  1  0
 25 42  1  0
 25 43  1  0
 26 44  1  0
 26 45  1  0
M  END
$$$$
confid_6
     RDKit          3D

 45 49  0  0  0  0  0  0  0  0999 V2000
   25.3300   26.2600   34.7600 N   0  0  0  0  0  0  0  0  0  0  0  0
   26.1200   25.9200   33.6900 C   0  0  0  0  0  0  0  0  0  0  0  0
   25.6300   25.1100   32.9400 O   0  0  0  0  0  0  0  0  0  0  0  0
   27.5200   26.3800   33.4600 C   0  0  0  0  0  0  0  0  0  0  0  0
   28.1600   26.6300   34.6100 N   0  0  0  0  0  0  0  0  0  0  0  0
   29.4800   26.8500   34.5700 N   0  0  0  0  0  0  0  0  0  0  0  0
   30.1900   26.7800   33.4400 C   0  0  0  0  0  0  0  0  0  0  0  0
   31.5600   27.0500   33.5000 C   0  0  0  0  0  0  0  0  0  0  0  0
   32.2700   27.2400   32.3100 C   0  0  0  0  0  0  0  0  0  0  0  0
   31.6100   27.2500   31.0800 C   0  0  0  0  0  0  0  0  0  0  0  0
   30.2700   26.8700   31.0600 C   0  0  0  0  0  0  0  0  0  0  0  0
   29.5100   26.6900   32.2300 C   0  0  0  0  0  0  0  0  0  0  0  0
   28.1400   26.4100   32.2000 C   0  0  0  0  0  0  0  0  0  0  0  0
   27.4300   26.1300   31.0500 N   0  0  0  0  0  0  0  0  0  0  0  0
   27.6242   24.8216   30.3950 C   0  0  0  0  0  0  0  0  0  0  0  0
   27.0296   24.7828   28.9815 C   0  0  0  0  0  0  0  0  0  0  0  0
   25.6539   25.3844   28.9720 C   0  0  0  0  0  0  0  0  0  0  0  0
   24.6254   24.8297   28.1941 C   0  0  0  0  0  0  0  0  0  0  0  0
   23.3692   25.4406   28.1641 C   0  0  0  0  0  0  0  0  0  0  0  0
   23.1291   26.5954   28.9207 C   0  0  0  0  0  0  0  0  0  0  0  0
   24.1573   27.1682   29.6737 C   0  0  0  0  0  0  0  0  0  0  0  0
   25.4217   26.5588   29.7090 C   0  0  0  0  0  0  0  0  0  0  0  0
   26.5534   27.1714   30.4888 C   0  0  0  0  0  0  0  0  0  0  0  0
   21.8516   27.1644   28.9055 O   0  0  0  0  0  0  0  0  0  0  0  0
   20.7330   26.4524   28.3705 C   0  0  0  0  0  0  0  0  0  0  0  0
   21.1509   25.6701   27.1186 C   0  0  0  0  0  0  0  0  0  0  0  0
   22.3374   24.9157   27.3792 O   0  0  0  0  0  0  0  0  0  0  0  0
   25.6645   26.9503   35.4682 H   0  0  0  0  0  0  0  0  0  0  0  0
   24.3714   25.8592   34.8757 H   0  0  0  0  0  0  0  0  0  0  0  0
   32.0668   27.1428   34.4530 H   0  0  0  0  0  0  0  0  0  0  0  0
   33.3285   27.4622   32.3495 H   0  0  0  0  0  0  0  0  0  0  0  0
   32.1496   27.4393   30.1610 H   0  0  0  0  0  0  0  0  0  0  0  0
   29.7863   26.8127   30.0928 H   0  0  0  0  0  0  0  0  0  0  0  0
   28.7073   24.5824   30.3252 H   0  0  0  0  0  0  0  0  0  0  0  0
   27.1463   24.0318   31.0134 H   0  0  0  0  0  0  0  0  0  0  0  0
   27.0064   23.7294   28.6264 H   0  0  0  0  0  0  0  0  0  0  0  0
   27.6780   25.3666   28.2930 H   0  0  0  0  0  0  0  0  0  0  0  0
   24.8015   23.9388   27.6041 H   0  0  0  0  0  0  0  0  0  0  0  0
   23.9679   28.0739   30.2363 H   0  0  0  0  0  0  0  0  0  0  0  0
   26.1420   27.8036   31.3072 H   0  0  0  0  0  0  0  0  0  0  0  0
   27.1480   27.8245   29.8154 H   0  0  0  0  0  0  0  0  0  0  0  0
   19.9210   27.1679   28.1227 H   0  0  0  0  0  0  0  0  0  0  0  0
   20.3580   25.7405   29.1369 H   0  0  0  0  0  0  0  0  0  0  0  0
   20.3361   24.9845   26.8046 H   0  0  0  0  0  0  0  0  0  0  0  0
   21.3521   26.3852   26.2923 H   0  0  0  0  0  0  0  0  0  0  0  0
  1  2  1  0
  2  3  2  0
  2  4  1  0
  4  5  2  0
  5  6  1  0
  6  7  2  0
  7  8  1  0
  8  9  2  0
  9 10  1  0
 10 11  2  0
 11 12  1  0
 12 13  2  0
 13 14  1  0
 14 15  1  0
 15 16  1  0
 16 17  1  0
 17 18  2  0
 18 19  1  0
 19 20  2  0
 20 21  1  0
 21 22  2  0
 22 23  1  0
 20 24  1  0
 24 25  1  0
 25 26  1  0
 26 27  1  0
 13  4  1  0
 23 14  1  0
 12  7  1  0
 22 17  1  0
 27 19  1  0
  1 28  1  0
  1 29  1  0
  8 30  1  0
  9 31  1  0
 10 32  1  0
 11 33  1  0
 15 34  1  0
 15 35  1  0
 16 36  1  0
 16 37  1  0
 18 38  1  0
 21 39  1  0
 23 40  1  0
 23 41  1  0
 25 42  1  0
 25 43  1  0
 26 44  1  0
 26 45  1  0
M  END
$$$$
confid_7
     RDKit          3D

 45 49  0  0  0  0  0  0  0  0999 V2000
   25.3300   26.2600   34.7600 N   0  0  0  0  0  0  0  0  0  0  0  0
   26.1200   25.9200   33.6900 C   0  0  0  0  0  0  0  0  0  0  0  0
   25.6300   25.1100   32.9400 O   0  0  0  0  0  0  0  0  0  0  0  0
   27.5200   26.3800   33.4600 C   0  0  0  0  0  0  0  0  0  0  0  0
   28.1600   26.6300   34.6100 N   0  0  0  0  0  0  0  0  0  0  0  0
   29.4800   26.8500   34.5700 N   0  0  0  0  0  0  0  0  0  0  0  0
   30.1900   26.7800   33.4400 C   0  0  0  0  0  0  0  0  0  0  0  0
   31.5600   27.0500   33.5000 C   0  0  0  0  0  0  0  0  0  0  0  0
   32.2700   27.2400   32.3100 C   0  0  0  0  0  0  0  0  0  0  0  0
   31.6100   27.2500   31.0800 C   0  0  0  0  0  0  0  0  0  0  0  0
   30.2700   26.8700   31.0600 C   0  0  0  0  0  0  0  0  0  0  0  0
   29.5100   26.6900   32.2300 C   0  0  0  0  0  0  0  0  0  0  0  0
   28.1400   26.4100   32.2000 C   0  0  0  0  0  0  0  0  0  0  0  0
   27.4300   26.1300   31.0500 N   0  0  0  0  0  0  0  0  0  0  0  0
   26.5457   27.1735   30.4992 C   0  0  0  0  0  0  0  0  0  0  0  0
   25.7181   26.6701   29.3089 C   0  0  0  0  0  0  0  0  0  0  0  0
   26.5816   25.8886   28.3602 C   0  0  0  0  0  0  0  0  0  0  0  0
   26.4318   26.0138   26.9701 C   0  0  0  0  0  0  0  0  0  0  0  0
   27.2281   25.2494   26.1134 C   0  0  0  0  0  0  0  0  0  0  0  0
   28.1427   24.3262   26.6380 C   0  0  0  0  0  0  0  0  0  0  0  0
   28.2961   24.1974   28.0209 C   0  0  0  0  0  0  0  0  0  0  0  0
   27.5197   24.9836   28.8867 C   0  0  0  0  0  0  0  0  0  0  0  0
   27.6307   24.8332   30.3792 C   0  0  0  0  0  0  0  0  0  0  0  0
   28.8920   23.5374   25.7591 O   0  0  0  0  0  0  0  0  0  0  0  0
   28.5554   23.4541   24.3718 C   0  0  0  0  0  0  0  0  0  0  0  0
   28.1044   24.8251   23.8513 C   0  0  0  0  0  0  0  0  0  0  0  0
   27.1231   25.3882   24.7256 O   0  0  0  0  0  0  0  0  0  0  0  0
   24.3717   25.8586   34.8762 H   0  0  0  0  0  0  0  0  0  0  0  0
   25.6645   26.9503   35.4682 H   0  0  0  0  0  0  0  0  0  0  0  0
   32.0668   27.1427   34.4530 H   0  0  0  0  0  0  0  0  0  0  0  0
   33.3286   27.4618   32.3494 H   0  0  0  0  0  0  0  0  0  0  0  0
   32.1499   27.4377   30.1608 H   0  0  0  0  0  0  0  0  0  0  0  0
   29.7869   26.8063   30.0928 H   0  0  0  0  0  0  0  0  0  0  0  0
   27.1674   28.0350   30.1703 H   0  0  0  0  0  0  0  0  0  0  0  0
   25.8488   27.5354   31.2858 H   0  0  0  0  0  0  0  0  0  0  0  0
   25.2499   27.5398   28.7984 H   0  0  0  0  0  0  0  0  0  0  0  0
   24.9062   26.0073   29.6788 H   0  0  0  0  0  0  0  0  0  0  0  0
   25.7108   26.7070   26.5548 H   0  0  0  0  0  0  0  0  0  0  0  0
   29.0054   23.4809   28.4164 H   0  0  0  0  0  0  0  0  0  0  0  0
   28.6276   24.4133   30.6412 H   0  0  0  0  0  0  0  0  0  0  0  0
   26.8577   24.1166   30.7275 H   0  0  0  0  0  0  0  0  0  0  0  0
   27.7263   22.7254   24.2447 H   0  0  0  0  0  0  0  0  0  0  0  0
   29.4348   23.0956   23.7969 H   0  0  0  0  0  0  0  0  0  0  0  0
   27.6800   24.7273   22.8301 H   0  0  0  0  0  0  0  0  0  0  0  0
   28.9821   25.5052   23.8080 H   0  0  0  0  0  0  0  0  0  0  0  0
  1  2  1  0
  2  3  2  0
  2  4  1  0
  4  5  2  0
  5  6  1  0
  6  7  2  0
  7  8  1  0
  8  9  2  0
  9 10  1  0
 10 11  2  0
 11 12  1  0
 12 13  2  0
 13 14  1  0
 14 15  1  0
 15 16  1  0
 16 17  1  0
 17 18  2  0
 18 19  1  0
 19 20  2  0
 20 21  1  0
 21 22  2  0
 22 23  1  0
 20 24  1  0
 24 25  1  0
 25 26  1  0
 26 27  1  0
 13  4  1  0
 23 14  1  0
 12  7  1  0
 22 17  1  0
 27 19  1  0
  1 28  1  0
  1 29  1  0
  8 30  1  0
  9 31  1  0
 10 32  1  0
 11 33  1  0
 15 34  1  0
 15 35  1  0
 16 36  1  0
 16 37  1  0
 18 38  1  0
 21 39  1  0
 23 40  1  0
 23 41  1  0
 25 42  1  0
 25 43  1  0
 26 44  1  0
 26 45  1  0
M  END
$$$$
confid_8
     RDKit          3D

 45 49  0  0  0  0  0  0  0  0999 V2000
   25.3300   26.2600   34.7600 N   0  0  0  0  0  0  0  0  0  0  0  0
   26.1200   25.9200   33.6900 C   0  0  0  0  0  0  0  0  0  0  0  0
   25.6300   25.1100   32.9400 O   0  0  0  0  0  0  0  0  0  0  0  0
   27.5200   26.3800   33.4600 C   0  0  0  0  0  0  0  0  0  0  0  0
   28.1600   26.6300   34.6100 N   0  0  0  0  0  0  0  0  0  0  0  0
   29.4800   26.8500   34.5700 N   0  0  0  0  0  0  0  0  0  0  0  0
   30.1900   26.7800   33.4400 C   0  0  0  0  0  0  0  0  0  0  0  0
   31.5600   27.0500   33.5000 C   0  0  0  0  0  0  0  0  0  0  0  0
   32.2700   27.2400   32.3100 C   0  0  0  0  0  0  0  0  0  0  0  0
   31.6100   27.2500   31.0800 C   0  0  0  0  0  0  0  0  0  0  0  0
   30.2700   26.8700   31.0600 C   0  0  0  0  0  0  0  0  0  0  0  0
   29.5100   26.6900   32.2300 C   0  0  0  0  0  0  0  0  0  0  0  0
   28.1400   26.4100   32.2000 C   0  0  0  0  0  0  0  0  0  0  0  0
   27.4300   26.1300   31.0500 N   0  0  0  0  0  0  0  0  0  0  0  0
   26.4271   27.0683   30.5460 C   0  0  0  0  0  0  0  0  0  0  0  0
   26.8032   27.4853   29.1268 C   0  0  0  0  0  0  0  0  0  0  0  0
   27.1462   26.2939   28.2650 C   0  0  0  0  0  0  0  0  0  0  0  0
   27.1114   26.4331   26.8676 C   0  0  0  0  0  0  0  0  0  0  0  0
   27.4866   25.3695   26.0450 C   0  0  0  0  0  0  0  0  0  0  0  0
   27.8805   24.1503   26.6073 C   0  0  0  0  0  0  0  0  0  0  0  0
   27.9482   24.0067   27.9941 C   0  0  0  0  0  0  0  0  0  0  0  0
   27.5957   25.0753   28.8342 C   0  0  0  0  0  0  0  0  0  0  0  0
   27.6417   24.8700   30.3299 C   0  0  0  0  0  0  0  0  0  0  0  0
   28.2051   23.0846   25.7615 O   0  0  0  0  0  0  0  0  0  0  0  0
   27.8859   23.1239   24.3683 C   0  0  0  0  0  0  0  0  0  0  0  0
   28.1092   24.5361   23.8123 C   0  0  0  0  0  0  0  0  0  0  0  0
   27.4764   25.5045   24.6528 O   0  0  0  0  0  0  0  0  0  0  0  0
   25.6645   26.9503   35.4682 H   0  0  0  0  0  0  0  0  0  0  0  0
   24.3717   25.8585   34.8763 H   0  0  0  0  0  0  0  0  0  0  0  0
   32.0668   27.1427   34.4530 H   0  0  0  0  0  0  0  0  0  0  0  0
   33.3286   27.4619   32.3494 H   0  0  0  0  0  0  0  0  0  0  0  0
   32.1498   27.4379   30.1608 H   0  0  0  0  0  0  0  0  0  0  0  0
   29.7885   26.8072   30.0926 H   0  0  0  0  0  0  0  0  0  0  0  0
   26.3626   27.9730   31.1908 H   0  0  0  0  0  0  0  0  0  0  0  0
   25.4304   26.5756   30.5396 H   0  0  0  0  0  0  0  0  0  0  0  0
   27.6861   28.1592   29.1670 H   0  0  0  0  0  0  0  0  0  0  0  0
   25.9547   28.0497   28.6823 H   0  0  0  0  0  0  0  0  0  0  0  0
   26.8077   27.3710   26.4187 H   0  0  0  0  0  0  0  0  0  0  0  0
   28.2634   23.0604   28.4169 H   0  0  0  0  0  0  0  0  0  0  0  0
   26.8458   24.1512   30.6186 H   0  0  0  0  0  0  0  0  0  0  0  0
   28.6233   24.4248   30.6065 H   0  0  0  0  0  0  0  0  0  0  0  0
   28.5166   22.3918   23.8217 H   0  0  0  0  0  0  0  0  0  0  0  0
   26.8189   22.8439   24.2344 H   0  0  0  0  0  0  0  0  0  0  0  0
   27.6997   24.6129   22.7833 H   0  0  0  0  0  0  0  0  0  0  0  0
   29.1999   24.7459   23.7776 H   0  0  0  0  0  0  0  0  0  0  0  0
  1  2  1  0
  2  3  2  0
  2  4  1  0
  4  5  2  0
  5  6  1  0
  6  7  2  0
  7  8  1  0
  8  9  2  0
  9 10  1  0
 10 11  2  0
 11 12  1  0
 12 13  2  0
 13 14  1  0
 14 15  1  0
 15 16  1  0
 16 17  1  0
 17 18  2  0
 18 19  1  0
 19 20  2  0
 20 21  1  0
 21 22  2  0
 22 23  1  0
 20 24  1  0
 24 25  1  0
 25 26  1  0
 26 27  1  0
 13  4  1  0
 23 14  1  0
 12  7  1  0
 22 17  1  0
 27 19  1  0
  1 28  1  0
  1 29  1  0
  8 30  1  0
  9 31  1  0
 10 32  1  0
 11 33  1  0
 15 34  1  0
 15 35  1  0
 16 36  1  0
 16 37  1  0
 18 38  1  0
 21 39  1  0
 23 40  1  0
 23 41  1  0
 25 42  1  0
 25 43  1  0
 26 44  1  0
 26 45  1  0
M  END
$$$$
