confid_0
     RDKit          3D

 48 51  0  0  0  0  0  0  0  0999 V2000
   24.6900   26.1200   35.5300 N   0  0  0  0  0  0  0  0  0  0  0  0
   25.6600   25.6700   34.6600 C   0  0  0  0  0  0  0  0  0  0  0  0
   25.2400   25.0100   33.7200 O   0  0  0  0  0  0  0  0  0  0  0  0
   27.0300   26.2200   34.8800 C   0  0  0  0  0  0  0  0  0  0  0  0
   27.3500   26.7300   36.0700 N   0  0  0  0  0  0  0  0  0  0  0  0
   28.5700   27.1800   36.3300 N   0  0  0  0  0  0  0  0  0  0  0  0
   29.5300   27.1100   35.3900 C   0  0  0  0  0  0  0  0  0  0  0  0
   30.8300   27.5700   35.6500 C   0  0  0  0  0  0  0  0  0  0  0  0
   31.8500   27.5400   34.6900 C   0  0  0  0  0  0  0  0  0  0  0  0
   31.5100   27.1200   33.4000 C   0  0  0  0  0  0  0  0  0  0  0  0
   30.2200   26.6300   33.1100 C   0  0  0  0  0  0  0  0  0  0  0  0
   29.2400   26.6600   34.1000 C   0  0  0  0  0  0  0  0  0  0  0  0
   27.9300   26.2600   33.8100 C   0  0  0  0  0  0  0  0  0  0  0  0
   27.5200   25.7100   32.6100 N   0  0  0  0  0  0  0  0  0  0  0  0
   23.5355   25.3546   35.9146 C   0  0  0  0  0  0  0  0  0  0  0  0
   22.4695   25.9823   36.3115 N   0  0  0  0  0  0  0  0  0  0  0  0
   21.2929   25.3005   36.7661 C   0  0  0  0  0  0  0  0  0  0  0  0
   21.1570   23.9686   36.6193 C   0  0  0  0  0  0  0  0  0  0  0  0
   19.9108   23.2950   37.1416 C   0  0  0  0  0  0  0  0  0  0  0  0
   20.2649   22.2907   38.0720 O   0  0  0  0  0  0  0  0  0  0  0  0
   20.4244   21.0121   37.4752 C   0  0  0  0  0  0  0  0  0  0  0  0
   19.0748   20.2992   37.3300 C   0  0  0  0  0  0  0  0  0  0  0  0
   21.2141   21.0279   36.1507 C   0  0  0  0  0  0  0  0  0  0  0  0
   22.3684   21.8391   36.2764 O   0  0  0  0  0  0  0  0  0  0  0  0
   22.2164   23.1870   35.8262 C   0  0  0  0  0  0  0  0  0  0  0  0
   21.9068   23.2553   34.3059 C   0  0  0  0  0  0  0  0  0  0  0  0
   23.5987   23.8491   36.0620 C   0  0  0  0  0  0  0  0  0  0  0  0
   24.7554   27.1015   35.8857 H   0  0  0  0  0  0  0  0  0  0  0  0
   31.0673   27.9414   36.6394 H   0  0  0  0  0  0  0  0  0  0  0  0
   32.8486   27.8872   34.9214 H   0  0  0  0  0  0  0  0  0  0  0  0
   32.2655   27.1208   32.6249 H   0  0  0  0  0  0  0  0  0  0  0  0
   30.0114   26.2784   32.1078 H   0  0  0  0  0  0  0  0  0  0  0  0
   27.6981   26.2226   31.7182 H   0  0  0  0  0  0  0  0  0  0  0  0
   27.3401   24.6834   32.5419 H   0  0  0  0  0  0  0  0  0  0  0  0
   20.5173   25.8859   37.2436 H   0  0  0  0  0  0  0  0  0  0  0  0
   19.2646   24.0231   37.6773 H   0  0  0  0  0  0  0  0  0  0  0  0
   19.2886   22.9285   36.2964 H   0  0  0  0  0  0  0  0  0  0  0  0
   21.0237   20.4079   38.1910 H   0  0  0  0  0  0  0  0  0  0  0  0
   19.2334   19.2483   37.0066 H   0  0  0  0  0  0  0  0  0  0  0  0
   18.5480   20.2898   38.3076 H   0  0  0  0  0  0  0  0  0  0  0  0
   18.4291   20.8047   36.5824 H   0  0  0  0  0  0  0  0  0  0  0  0
   21.5536   19.9913   35.9397 H   0  0  0  0  0  0  0  0  0  0  0  0
   20.5605   21.2921   35.2969 H   0  0  0  0  0  0  0  0  0  0  0  0
   22.1366   24.2595   33.8906 H   0  0  0  0  0  0  0  0  0  0  0  0
   20.8330   23.0756   34.0923 H   0  0  0  0  0  0  0  0  0  0  0  0
   22.5159   22.5061   33.7565 H   0  0  0  0  0  0  0  0  0  0  0  0
   24.3519   23.3984   35.3833 H   0  0  0  0  0  0  0  0  0  0  0  0
   23.9349   23.6322   37.0998 H   0  0  0  0  0  0  0  0  0  0  0  0
  1  2  1  0
  2  3  2  0
  2  4  1  0
  4  5  2  0
  5  6  1  0
  6  7  2  0
  7  8  1  0
  8  9  2  0
  9 10  1  0
 10 11  2  0
 11 12  1  0
 12 13  2  0
 13 14  1  0
  1 15  1  0
 15 16  2  0
 16 17  1  0
 17 18  2  0
 18 19  1  0
 19 20  1  0
 20 21  1  0
 21 22  1  0
 21 23  1  0
 23 24  1  0
 24 25  1  0
 25 26  1  0
 25 27  1  0
 13  4  1  0
 27 15  1  0
 12  7  1  0
 25 18  1  0
  1 28  1  0
  8 29  1  0
  9 30  1  0
 10 31  1  0
 11 32  1  0
 14 33  1  0
 14 34  1  0
 17 35  1  0
 19 36  1  0
 19 37  1  0
 21 38  1  0
 22 39  1  0
 22 40  1  0
 22 41  1  0
 23 42  1  0
 23 43  1  0
 26 44  1  0
 26 45  1  0
 26 46  1  0
 27 47  1  0
 27 48  1  0
M  END
$$$$
