confid_0
     RDKit          3D

 45 48  0  0  0  0  0  0  0  0999 V2000
   24.5500   26.3900   36.2500 N   0  0  0  0  0  0  0  0  0  0  0  0
   25.6000   26.1300   35.4000 C   0  0  0  0  0  0  0  0  0  0  0  0
   25.4300   25.4300   34.4200 O   0  0  0  0  0  0  0  0  0  0  0  0
   26.9800   26.6300   35.7100 C   0  0  0  0  0  0  0  0  0  0  0  0
   27.3200   26.8200   36.9800 N   0  0  0  0  0  0  0  0  0  0  0  0
   28.4700   27.4000   37.3100 N   0  0  0  0  0  0  0  0  0  0  0  0
   29.4000   27.6300   36.3700 C   0  0  0  0  0  0  0  0  0  0  0  0
   30.6600   28.0500   36.8000 C   0  0  0  0  0  0  0  0  0  0  0  0
   31.5700   28.3600   35.7800 C   0  0  0  0  0  0  0  0  0  0  0  0
   31.3700   28.1000   34.4300 C   0  0  0  0  0  0  0  0  0  0  0  0
   30.1200   27.5900   34.0500 C   0  0  0  0  0  0  0  0  0  0  0  0
   29.1500   27.3400   35.0300 C   0  0  0  0  0  0  0  0  0  0  0  0
   27.8800   26.8900   34.6600 C   0  0  0  0  0  0  0  0  0  0  0  0
   27.4800   26.6100   33.3700 N   0  0  0  0  0  0  0  0  0  0  0  0
   30.9881   28.3187   38.2163 C   0  0  0  0  0  0  0  0  0  0  0  0
   31.7927   27.4081   38.9123 C   0  0  0  0  0  0  0  0  0  0  0  0
   32.1062   27.6285   40.2581 C   0  0  0  0  0  0  0  0  0  0  0  0
   33.0278   26.6899   40.9989 C   0  0  0  0  0  0  0  0  0  0  0  0
   32.7010   26.6591   42.4983 C   0  0  0  0  0  0  0  0  0  0  0  0
   32.6398   28.0213   43.0468 N   0  0  0  0  0  0  0  0  0  0  0  0
   31.9642   29.0431   42.2925 C   0  0  0  0  0  0  0  0  0  0  0  0
   31.6710   30.1476   42.8259 O   0  0  0  0  0  0  0  0  0  0  0  0
   31.6290   28.7917   40.8827 C   0  0  0  0  0  0  0  0  0  0  0  0
   30.8647   29.6752   40.1868 N   0  0  0  0  0  0  0  0  0  0  0  0
   30.5344   29.4786   38.8811 C   0  0  0  0  0  0  0  0  0  0  0  0
   29.6916   30.5081   38.1870 C   0  0  0  0  0  0  0  0  0  0  0  0
   33.1983   28.3274   44.3651 C   0  0  0  0  0  0  0  0  0  0  0  0
   24.6739   26.9932   37.0933 H   0  0  0  0  0  0  0  0  0  0  0  0
   23.6001   26.0039   36.0504 H   0  0  0  0  0  0  0  0  0  0  0  0
   32.5310   28.7712   36.0646 H   0  0  0  0  0  0  0  0  0  0  0  0
   32.1355   28.3147   33.6956 H   0  0  0  0  0  0  0  0  0  0  0  0
   29.9365   27.3923   33.0016 H   0  0  0  0  0  0  0  0  0  0  0  0
   27.5826   27.3394   32.6301 H   0  0  0  0  0  0  0  0  0  0  0  0
   27.4182   25.6173   33.0515 H   0  0  0  0  0  0  0  0  0  0  0  0
   32.1711   26.5270   38.4068 H   0  0  0  0  0  0  0  0  0  0  0  0
   32.9401   25.6591   40.5914 H   0  0  0  0  0  0  0  0  0  0  0  0
   34.0753   27.0327   40.8578 H   0  0  0  0  0  0  0  0  0  0  0  0
   33.4702   26.0513   43.0220 H   0  0  0  0  0  0  0  0  0  0  0  0
   31.7151   26.1671   42.6462 H   0  0  0  0  0  0  0  0  0  0  0  0
   28.6775   30.1001   37.9972 H   0  0  0  0  0  0  0  0  0  0  0  0
   30.1595   30.8009   37.2235 H   0  0  0  0  0  0  0  0  0  0  0  0
   29.5935   31.4181   38.8163 H   0  0  0  0  0  0  0  0  0  0  0  0
   32.3943   28.6939   45.0377 H   0  0  0  0  0  0  0  0  0  0  0  0
   33.9790   29.1108   44.2665 H   0  0  0  0  0  0  0  0  0  0  0  0
   33.6567   27.4293   44.8301 H   0  0  0  0  0  0  0  0  0  0  0  0
  1  2  1  0
  2  3  2  0
  2  4  1  0
  4  5  2  0
  5  6  1  0
  6  7  2  0
  7  8  1  0
  8  9  2  0
  9 10  1  0
 10 11  2  0
 11 12  1  0
 12 13  2  0
 13 14  1  0
  8 15  1  0
 15 16  2  0
 16 17  1  0
 17 18  1  0
 18 19  1  0
 19 20  1  0
 20 21  1  0
 21 22  2  0
 21 23  1  0
 23 24  1  0
 24 25  2  0
 25 26  1  0
 20 27  1  0
 13  4  1  0
 25 15  1  0
 12  7  1  0
 23 17  2  0
  1 28  1  0
  1 29  1  0
  9 30  1  0
 10 31  1  0
 11 32  1  0
 14 33  1  0
 14 34  1  0
 16 35  1  0
 18 36  1  0
 18 37  1  0
 19 38  1  0
 19 39  1  0
 26 40  1  0
 26 41  1  0
 26 42  1  0
 27 43  1  0
 27 44  1  0
 27 45  1  0
M  END
$$$$
confid_1
     RDKit          3D

 45 48  0  0  0  0  0  0  0  0999 V2000
   24.5500   26.3900   36.2500 N   0  0  0  0  0  0  0  0  0  0  0  0
   25.6000   26.1300   35.4000 C   0  0  0  0  0  0  0  0  0  0  0  0
   25.4300   25.4300   34.4200 O   0  0  0  0  0  0  0  0  0  0  0  0
   26.9800   26.6300   35.7100 C   0  0  0  0  0  0  0  0  0  0  0  0
   27.3200   26.8200   36.9800 N   0  0  0  0  0  0  0  0  0  0  0  0
   28.4700   27.4000   37.3100 N   0  0  0  0  0  0  0  0  0  0  0  0
   29.4000   27.6300   36.3700 C   0  0  0  0  0  0  0  0  0  0  0  0
   30.6600   28.0500   36.8000 C   0  0  0  0  0  0  0  0  0  0  0  0
   31.5700   28.3600   35.7800 C   0  0  0  0  0  0  0  0  0  0  0  0
   31.3700   28.1000   34.4300 C   0  0  0  0  0  0  0  0  0  0  0  0
   30.1200   27.5900   34.0500 C   0  0  0  0  0  0  0  0  0  0  0  0
   29.1500   27.3400   35.0300 C   0  0  0  0  0  0  0  0  0  0  0  0
   27.8800   26.8900   34.6600 C   0  0  0  0  0  0  0  0  0  0  0  0
   27.4800   26.6100   33.3700 N   0  0  0  0  0  0  0  0  0  0  0  0
   30.9876   28.3244   38.2199 C   0  0  0  0  0  0  0  0  0  0  0  0
   30.2826   29.3222   38.9091 C   0  0  0  0  0  0  0  0  0  0  0  0
   30.5821   29.6059   40.2459 C   0  0  0  0  0  0  0  0  0  0  0  0
   29.8832   30.7311   40.9699 C   0  0  0  0  0  0  0  0  0  0  0  0
   29.8052   30.4575   42.4783 C   0  0  0  0  0  0  0  0  0  0  0  0
   31.1287   30.1090   43.0141 N   0  0  0  0  0  0  0  0  0  0  0  0
   31.9623   29.2041   42.2687 C   0  0  0  0  0  0  0  0  0  0  0  0
   32.9824   28.6856   42.7988 O   0  0  0  0  0  0  0  0  0  0  0  0
   31.6197   28.8980   40.8716 C   0  0  0  0  0  0  0  0  0  0  0  0
   32.2962   27.9355   40.1901 N   0  0  0  0  0  0  0  0  0  0  0  0
   32.0082   27.6208   38.8976 C   0  0  0  0  0  0  0  0  0  0  0  0
   32.8007   26.5354   38.2296 C   0  0  0  0  0  0  0  0  0  0  0  0
   31.5728   30.6188   44.3127 C   0  0  0  0  0  0  0  0  0  0  0  0
   24.6739   26.9932   37.0933 H   0  0  0  0  0  0  0  0  0  0  0  0
   23.6001   26.0040   36.0503 H   0  0  0  0  0  0  0  0  0  0  0  0
   32.5272   28.7820   36.0611 H   0  0  0  0  0  0  0  0  0  0  0  0
   32.1328   28.3221   33.6949 H   0  0  0  0  0  0  0  0  0  0  0  0
   29.9371   27.4184   32.9982 H   0  0  0  0  0  0  0  0  0  0  0  0
   28.1243   26.1388   32.6978 H   0  0  0  0  0  0  0  0  0  0  0  0
   26.5962   27.0149   32.9873 H   0  0  0  0  0  0  0  0  0  0  0  0
   29.5109   29.8875   38.3994 H   0  0  0  0  0  0  0  0  0  0  0  0
   28.8521   30.8637   40.5756 H   0  0  0  0  0  0  0  0  0  0  0  0
   30.4471   31.6727   40.7958 H   0  0  0  0  0  0  0  0  0  0  0  0
   29.1092   29.6096   42.6591 H   0  0  0  0  0  0  0  0  0  0  0  0
   29.3919   31.3555   42.9862 H   0  0  0  0  0  0  0  0  0  0  0  0
   33.3597   25.9437   38.9852 H   0  0  0  0  0  0  0  0  0  0  0  0
   32.1255   25.8452   37.6810 H   0  0  0  0  0  0  0  0  0  0  0  0
   33.5293   26.9829   37.5226 H   0  0  0  0  0  0  0  0  0  0  0  0
   30.8066   31.2771   44.7737 H   0  0  0  0  0  0  0  0  0  0  0  0
   31.7626   29.7708   45.0041 H   0  0  0  0  0  0  0  0  0  0  0  0
   32.5082   31.2028   44.1838 H   0  0  0  0  0  0  0  0  0  0  0  0
  1  2  1  0
  2  3  2  0
  2  4  1  0
  4  5  2  0
  5  6  1  0
  6  7  2  0
  7  8  1  0
  8  9  2  0
  9 10  1  0
 10 11  2  0
 11 12  1  0
 12 13  2  0
 13 14  1  0
  8 15  1  0
 15 16  2  0
 16 17  1  0
 17 18  1  0
 18 19  1  0
 19 20  1  0
 20 21  1  0
 21 22  2  0
 21 23  1  0
 23 24  1  0
 24 25  2  0
 25 26  1  0
 20 27  1  0
 13  4  1  0
 25 15  1  0
 12  7  1  0
 23 17  2  0
  1 28  1  0
  1 29  1  0
  9 30  1  0
 10 31  1  0
 11 32  1  0
 14 33  1  0
 14 34  1  0
 16 35  1  0
 18 36  1  0
 18 37  1  0
 19 38  1  0
 19 39  1  0
 26 40  1  0
 26 41  1  0
 26 42  1  0
 27 43  1  0
 27 44  1  0
 27 45  1  0
M  END
$$$$
confid_2
     RDKit          3D

 45 48  0  0  0  0  0  0  0  0999 V2000
   24.5500   26.3900   36.2500 N   0  0  0  0  0  0  0  0  0  0  0  0
   25.6000   26.1300   35.4000 C   0  0  0  0  0  0  0  0  0  0  0  0
   25.4300   25.4300   34.4200 O   0  0  0  0  0  0  0  0  0  0  0  0
   26.9800   26.6300   35.7100 C   0  0  0  0  0  0  0  0  0  0  0  0
   27.3200   26.8200   36.9800 N   0  0  0  0  0  0  0  0  0  0  0  0
   28.4700   27.4000   37.3100 N   0  0  0  0  0  0  0  0  0  0  0  0
   29.4000   27.6300   36.3700 C   0  0  0  0  0  0  0  0  0  0  0  0
   30.6600   28.0500   36.8000 C   0  0  0  0  0  0  0  0  0  0  0  0
   31.5700   28.3600   35.7800 C   0  0  0  0  0  0  0  0  0  0  0  0
   31.3700   28.1000   34.4300 C   0  0  0  0  0  0  0  0  0  0  0  0
   30.1200   27.5900   34.0500 C   0  0  0  0  0  0  0  0  0  0  0  0
   29.1500   27.3400   35.0300 C   0  0  0  0  0  0  0  0  0  0  0  0
   27.8800   26.8900   34.6600 C   0  0  0  0  0  0  0  0  0  0  0  0
   27.4800   26.6100   33.3700 N   0  0  0  0  0  0  0  0  0  0  0  0
   30.9916   28.2830   38.2253 C   0  0  0  0  0  0  0  0  0  0  0  0
   31.0707   27.1848   39.0929 C   0  0  0  0  0  0  0  0  0  0  0  0
   31.4025   27.3691   40.4395 C   0  0  0  0  0  0  0  0  0  0  0  0
   31.4210   26.2012   41.3958 C   0  0  0  0  0  0  0  0  0  0  0  0
   32.4251   26.4309   42.5339 C   0  0  0  0  0  0  0  0  0  0  0  0
   32.2072   27.7401   43.1653 N   0  0  0  0  0  0  0  0  0  0  0  0
   31.9584   28.8820   42.3263 C   0  0  0  0  0  0  0  0  0  0  0  0
   32.0144   30.0503   42.7980 O   0  0  0  0  0  0  0  0  0  0  0  0
   31.6230   28.6727   40.9097 C   0  0  0  0  0  0  0  0  0  0  0  0
   31.5251   29.7297   40.0603 N   0  0  0  0  0  0  0  0  0  0  0  0
   31.2138   29.5788   38.7439 C   0  0  0  0  0  0  0  0  0  0  0  0
   31.1168   30.8059   37.8853 C   0  0  0  0  0  0  0  0  0  0  0  0
   32.3025   27.9003   44.6174 C   0  0  0  0  0  0  0  0  0  0  0  0
   24.6739   26.9932   37.0934 H   0  0  0  0  0  0  0  0  0  0  0  0
   23.6001   26.0040   36.0503 H   0  0  0  0  0  0  0  0  0  0  0  0
   32.5381   28.7542   36.0635 H   0  0  0  0  0  0  0  0  0  0  0  0
   32.1352   28.3160   33.6956 H   0  0  0  0  0  0  0  0  0  0  0  0
   29.9376   27.4170   32.9984 H   0  0  0  0  0  0  0  0  0  0  0  0
   26.5962   27.0149   32.9873 H   0  0  0  0  0  0  0  0  0  0  0  0
   28.1242   26.1386   32.6978 H   0  0  0  0  0  0  0  0  0  0  0  0
   30.8786   26.1863   38.7174 H   0  0  0  0  0  0  0  0  0  0  0  0
   31.6938   25.2659   40.8601 H   0  0  0  0  0  0  0  0  0  0  0  0
   30.4033   26.0737   41.8235 H   0  0  0  0  0  0  0  0  0  0  0  0
   32.3245   25.6081   43.2743 H   0  0  0  0  0  0  0  0  0  0  0  0
   33.4569   26.3978   42.1214 H   0  0  0  0  0  0  0  0  0  0  0  0
   32.0181   30.8881   37.2437 H   0  0  0  0  0  0  0  0  0  0  0  0
   31.0509   31.7161   38.5184 H   0  0  0  0  0  0  0  0  0  0  0  0
   30.2080   30.7630   37.2484 H   0  0  0  0  0  0  0  0  0  0  0  0
   32.5288   26.9354   45.1181 H   0  0  0  0  0  0  0  0  0  0  0  0
   33.1138   28.6174   44.8637 H   0  0  0  0  0  0  0  0  0  0  0  0
   31.3398   28.2861   45.0139 H   0  0  0  0  0  0  0  0  0  0  0  0
  1  2  1  0
  2  3  2  0
  2  4  1  0
  4  5  2  0
  5  6  1  0
  6  7  2  0
  7  8  1  0
  8  9  2  0
  9 10  1  0
 10 11  2  0
 11 12  1  0
 12 13  2  0
 13 14  1  0
  8 15  1  0
 15 16  2  0
 16 17  1  0
 17 18  1  0
 18 19  1  0
 19 20  1  0
 20 21  1  0
 21 22  2  0
 21 23  1  0
 23 24  1  0
 24 25  2  0
 25 26  1  0
 20 27  1  0
 13  4  1  0
 25 15  1  0
 12  7  1  0
 23 17  2  0
  1 28  1  0
  1 29  1  0
  9 30  1  0
 10 31  1  0
 11 32  1  0
 14 33  1  0
 14 34  1  0
 16 35  1  0
 18 36  1  0
 18 37  1  0
 19 38  1  0
 19 39  1  0
 26 40  1  0
 26 41  1  0
 26 42  1  0
 27 43  1  0
 27 44  1  0
 27 45  1  0
M  END
$$$$
confid_3
     RDKit          3D

 45 48  0  0  0  0  0  0  0  0999 V2000
   24.5500   26.3900   36.2500 N   0  0  0  0  0  0  0  0  0  0  0  0
   25.6000   26.1300   35.4000 C   0  0  0  0  0  0  0  0  0  0  0  0
   25.4300   25.4300   34.4200 O   0  0  0  0  0  0  0  0  0  0  0  0
   26.9800   26.6300   35.7100 C   0  0  0  0  0  0  0  0  0  0  0  0
   27.3200   26.8200   36.9800 N   0  0  0  0  0  0  0  0  0  0  0  0
   28.4700   27.4000   37.3100 N   0  0  0  0  0  0  0  0  0  0  0  0
   29.4000   27.6300   36.3700 C   0  0  0  0  0  0  0  0  0  0  0  0
   30.6600   28.0500   36.8000 C   0  0  0  0  0  0  0  0  0  0  0  0
   31.5700   28.3600   35.7800 C   0  0  0  0  0  0  0  0  0  0  0  0
   31.3700   28.1000   34.4300 C   0  0  0  0  0  0  0  0  0  0  0  0
   30.1200   27.5900   34.0500 C   0  0  0  0  0  0  0  0  0  0  0  0
   29.1500   27.3400   35.0300 C   0  0  0  0  0  0  0  0  0  0  0  0
   27.8800   26.8900   34.6600 C   0  0  0  0  0  0  0  0  0  0  0  0
   27.4800   26.6100   33.3700 N   0  0  0  0  0  0  0  0  0  0  0  0
   30.9922   28.3028   38.2199 C   0  0  0  0  0  0  0  0  0  0  0  0
   31.1302   29.6243   38.6653 C   0  0  0  0  0  0  0  0  0  0  0  0
   31.4382   29.8903   40.0040 C   0  0  0  0  0  0  0  0  0  0  0  0
   31.5026   31.3104   40.5123 C   0  0  0  0  0  0  0  0  0  0  0  0
   32.4717   31.4336   41.6962 C   0  0  0  0  0  0  0  0  0  0  0  0
   32.1718   30.4253   42.7227 N   0  0  0  0  0  0  0  0  0  0  0  0
   31.8787   29.0794   42.3079 C   0  0  0  0  0  0  0  0  0  0  0  0
   31.8646   28.1373   43.1462 O   0  0  0  0  0  0  0  0  0  0  0  0
   31.5810   28.8130   40.8925 C   0  0  0  0  0  0  0  0  0  0  0  0
   31.4521   27.5364   40.4428 N   0  0  0  0  0  0  0  0  0  0  0  0
   31.1782   27.2485   39.1411 C   0  0  0  0  0  0  0  0  0  0  0  0
   31.0689   25.8089   38.7305 C   0  0  0  0  0  0  0  0  0  0  0  0
   32.2300   30.7607   44.1467 C   0  0  0  0  0  0  0  0  0  0  0  0
   24.6740   26.9931   37.0934 H   0  0  0  0  0  0  0  0  0  0  0  0
   23.6001   26.0040   36.0503 H   0  0  0  0  0  0  0  0  0  0  0  0
   32.5328   28.7672   36.0643 H   0  0  0  0  0  0  0  0  0  0  0  0
   32.1341   28.3188   33.6952 H   0  0  0  0  0  0  0  0  0  0  0  0
   29.9374   27.4176   32.9983 H   0  0  0  0  0  0  0  0  0  0  0  0
   28.1243   26.1387   32.6979 H   0  0  0  0  0  0  0  0  0  0  0  0
   26.5962   27.0149   32.9873 H   0  0  0  0  0  0  0  0  0  0  0  0
   30.9824   30.4449   37.9727 H   0  0  0  0  0  0  0  0  0  0  0  0
   31.8356   31.9964   39.7032 H   0  0  0  0  0  0  0  0  0  0  0  0
   30.4857   31.6204   40.8358 H   0  0  0  0  0  0  0  0  0  0  0  0
   33.5112   31.2794   41.3335 H   0  0  0  0  0  0  0  0  0  0  0  0
   32.4023   32.4615   42.1129 H   0  0  0  0  0  0  0  0  0  0  0  0
   31.5089   25.1509   39.5096 H   0  0  0  0  0  0  0  0  0  0  0  0
   30.0024   25.5341   38.5986 H   0  0  0  0  0  0  0  0  0  0  0  0
   31.6177   25.6336   37.7812 H   0  0  0  0  0  0  0  0  0  0  0  0
   32.9970   30.1342   44.6489 H   0  0  0  0  0  0  0  0  0  0  0  0
   32.4975   31.8272   44.3017 H   0  0  0  0  0  0  0  0  0  0  0  0
   31.2405   30.5738   44.6144 H   0  0  0  0  0  0  0  0  0  0  0  0
  1  2  1  0
  2  3  2  0
  2  4  1  0
  4  5  2  0
  5  6  1  0
  6  7  2  0
  7  8  1  0
  8  9  2  0
  9 10  1  0
 10 11  2  0
 11 12  1  0
 12 13  2  0
 13 14  1  0
  8 15  1  0
 15 16  2  0
 16 17  1  0
 17 18  1  0
 18 19  1  0
 19 20  1  0
 20 21  1  0
 21 22  2  0
 21 23  1  0
 23 24  1  0
 24 25  2  0
 25 26  1  0
 20 27  1  0
 13  4  1  0
 25 15  1  0
 12  7  1  0
 23 17  2  0
  1 28  1  0
  1 29  1  0
  9 30  1  0
 10 31  1  0
 11 32  1  0
 14 33  1  0
 14 34  1  0
 16 35  1  0
 18 36  1  0
 18 37  1  0
 19 38  1  0
 19 39  1  0
 26 40  1  0
 26 41  1  0
 26 42  1  0
 27 43  1  0
 27 44  1  0
 27 45  1  0
M  END
$$$$
confid_4
     RDKit          3D

 45 48  0  0  0  0  0  0  0  0999 V2000
   24.5500   26.3900   36.2500 N   0  0  0  0  0  0  0  0  0  0  0  0
   25.6000   26.1300   35.4000 C   0  0  0  0  0  0  0  0  0  0  0  0
   25.4300   25.4300   34.4200 O   0  0  0  0  0  0  0  0  0  0  0  0
   26.9800   26.6300   35.7100 C   0  0  0  0  0  0  0  0  0  0  0  0
   27.3200   26.8200   36.9800 N   0  0  0  0  0  0  0  0  0  0  0  0
   28.4700   27.4000   37.3100 N   0  0  0  0  0  0  0  0  0  0  0  0
   29.4000   27.6300   36.3700 C   0  0  0  0  0  0  0  0  0  0  0  0
   30.6600   28.0500   36.8000 C   0  0  0  0  0  0  0  0  0  0  0  0
   31.5700   28.3600   35.7800 C   0  0  0  0  0  0  0  0  0  0  0  0
   31.3700   28.1000   34.4300 C   0  0  0  0  0  0  0  0  0  0  0  0
   30.1200   27.5900   34.0500 C   0  0  0  0  0  0  0  0  0  0  0  0
   29.1500   27.3400   35.0300 C   0  0  0  0  0  0  0  0  0  0  0  0
   27.8800   26.8900   34.6600 C   0  0  0  0  0  0  0  0  0  0  0  0
   27.4800   26.6100   33.3700 N   0  0  0  0  0  0  0  0  0  0  0  0
   30.9883   28.3190   38.2161 C   0  0  0  0  0  0  0  0  0  0  0  0
   31.7832   27.4024   38.9155 C   0  0  0  0  0  0  0  0  0  0  0  0
   32.1097   27.6306   40.2569 C   0  0  0  0  0  0  0  0  0  0  0  0
   32.8936   26.6082   41.0438 C   0  0  0  0  0  0  0  0  0  0  0  0
   33.7118   27.2733   42.1593 C   0  0  0  0  0  0  0  0  0  0  0  0
   32.8639   28.1573   42.9716 N   0  0  0  0  0  0  0  0  0  0  0  0
   31.9215   29.0171   42.3068 C   0  0  0  0  0  0  0  0  0  0  0  0
   31.3606   29.9592   42.9301 O   0  0  0  0  0  0  0  0  0  0  0  0
   31.6064   28.7779   40.8903 C   0  0  0  0  0  0  0  0  0  0  0  0
   30.8405   29.6606   40.1951 N   0  0  0  0  0  0  0  0  0  0  0  0
   30.5279   29.4748   38.8835 C   0  0  0  0  0  0  0  0  0  0  0  0
   29.6853   30.5048   38.1897 C   0  0  0  0  0  0  0  0  0  0  0  0
   33.0132   28.2143   44.4269 C   0  0  0  0  0  0  0  0  0  0  0  0
   23.6001   26.0040   36.0503 H   0  0  0  0  0  0  0  0  0  0  0  0
   24.6739   26.9933   37.0933 H   0  0  0  0  0  0  0  0  0  0  0  0
   32.5306   28.7724   36.0645 H   0  0  0  0  0  0  0  0  0  0  0  0
   32.1336   28.3201   33.6951 H   0  0  0  0  0  0  0  0  0  0  0  0
   29.9372   27.4180   32.9983 H   0  0  0  0  0  0  0  0  0  0  0  0
   26.5962   27.0149   32.9873 H   0  0  0  0  0  0  0  0  0  0  0  0
   28.1243   26.1388   32.6978 H   0  0  0  0  0  0  0  0  0  0  0  0
   32.1366   26.5062   38.4185 H   0  0  0  0  0  0  0  0  0  0  0  0
   32.1828   25.8814   41.4926 H   0  0  0  0  0  0  0  0  0  0  0  0
   33.5853   26.0517   40.3744 H   0  0  0  0  0  0  0  0  0  0  0  0
   34.5268   27.8762   41.7031 H   0  0  0  0  0  0  0  0  0  0  0  0
   34.1786   26.4817   42.7843 H   0  0  0  0  0  0  0  0  0  0  0  0
   28.6685   30.1000   38.0081 H   0  0  0  0  0  0  0  0  0  0  0  0
   30.1482   30.7918   37.2221 H   0  0  0  0  0  0  0  0  0  0  0  0
   29.5953   31.4179   38.8156 H   0  0  0  0  0  0  0  0  0  0  0  0
   33.2985   29.2423   44.7351 H   0  0  0  0  0  0  0  0  0  0  0  0
   33.7994   27.5151   44.7819 H   0  0  0  0  0  0  0  0  0  0  0  0
   32.0525   27.9400   44.9112 H   0  0  0  0  0  0  0  0  0  0  0  0
  1  2  1  0
  2  3  2  0
  2  4  1  0
  4  5  2  0
  5  6  1  0
  6  7  2  0
  7  8  1  0
  8  9  2  0
  9 10  1  0
 10 11  2  0
 11 12  1  0
 12 13  2  0
 13 14  1  0
  8 15  1  0
 15 16  2  0
 16 17  1  0
 17 18  1  0
 18 19  1  0
 19 20  1  0
 20 21  1  0
 21 22  2  0
 21 23  1  0
 23 24  1  0
 24 25  2  0
 25 26  1  0
 20 27  1  0
 13  4  1  0
 25 15  1  0
 12  7  1  0
 23 17  2  0
  1 28  1  0
  1 29  1  0
  9 30  1  0
 10 31  1  0
 11 32  1  0
 14 33  1  0
 14 34  1  0
 16 35  1  0
 18 36  1  0
 18 37  1  0
 19 38  1  0
 19 39  1  0
 26 40  1  0
 26 41  1  0
 26 42  1  0
 27 43  1  0
 27 44  1  0
 27 45  1  0
M  END
$$$$
confid_5
     RDKit          3D

 45 48  0  0  0  0  0  0  0  0999 V2000
   24.5500   26.3900   36.2500 N   0  0  0  0  0  0  0  0  0  0  0  0
   25.6000   26.1300   35.4000 C   0  0  0  0  0  0  0  0  0  0  0  0
   25.4300   25.4300   34.4200 O   0  0  0  0  0  0  0  0  0  0  0  0
   26.9800   26.6300   35.7100 C   0  0  0  0  0  0  0  0  0  0  0  0
   27.3200   26.8200   36.9800 N   0  0  0  0  0  0  0  0  0  0  0  0
   28.4700   27.4000   37.3100 N   0  0  0  0  0  0  0  0  0  0  0  0
   29.4000   27.6300   36.3700 C   0  0  0  0  0  0  0  0  0  0  0  0
   30.6600   28.0500   36.8000 C   0  0  0  0  0  0  0  0  0  0  0  0
   31.5700   28.3600   35.7800 C   0  0  0  0  0  0  0  0  0  0  0  0
   31.3700   28.1000   34.4300 C   0  0  0  0  0  0  0  0  0  0  0  0
   30.1200   27.5900   34.0500 C   0  0  0  0  0  0  0  0  0  0  0  0
   29.1500   27.3400   35.0300 C   0  0  0  0  0  0  0  0  0  0  0  0
   27.8800   26.8900   34.6600 C   0  0  0  0  0  0  0  0  0  0  0  0
   27.4800   26.6100   33.3700 N   0  0  0  0  0  0  0  0  0  0  0  0
   30.9916   28.2811   38.2257 C   0  0  0  0  0  0  0  0  0  0  0  0
   31.0718   27.1812   39.0910 C   0  0  0  0  0  0  0  0  0  0  0  0
   31.3871   27.3643   40.4416 C   0  0  0  0  0  0  0  0  0  0  0  0
   31.5572   26.1787   41.3607 C   0  0  0  0  0  0  0  0  0  0  0  0
   31.2101   26.5451   42.8103 C   0  0  0  0  0  0  0  0  0  0  0  0
   31.9295   27.7566   43.2285 N   0  0  0  0  0  0  0  0  0  0  0  0
   32.0062   28.8668   42.3171 C   0  0  0  0  0  0  0  0  0  0  0  0
   32.3865   30.0010   42.7165 O   0  0  0  0  0  0  0  0  0  0  0  0
   31.6480   28.6628   40.9053 C   0  0  0  0  0  0  0  0  0  0  0  0
   31.5616   29.7205   40.0554 N   0  0  0  0  0  0  0  0  0  0  0  0
   31.2309   29.5743   38.7433 C   0  0  0  0  0  0  0  0  0  0  0  0
   31.1424   30.8030   37.8860 C   0  0  0  0  0  0  0  0  0  0  0  0
   32.5059   27.8641   44.5701 C   0  0  0  0  0  0  0  0  0  0  0  0
   23.6001   26.0039   36.0504 H   0  0  0  0  0  0  0  0  0  0  0  0
   24.6739   26.9931   37.0934 H   0  0  0  0  0  0  0  0  0  0  0  0
   32.5388   28.7523   36.0636 H   0  0  0  0  0  0  0  0  0  0  0  0
   32.1372   28.3105   33.6961 H   0  0  0  0  0  0  0  0  0  0  0  0
   29.9369   27.3913   33.0018 H   0  0  0  0  0  0  0  0  0  0  0  0
   27.5828   27.3393   32.6300 H   0  0  0  0  0  0  0  0  0  0  0  0
   27.4181   25.6173   33.0515 H   0  0  0  0  0  0  0  0  0  0  0  0
   30.9016   26.1812   38.7086 H   0  0  0  0  0  0  0  0  0  0  0  0
   30.9031   25.3403   41.0361 H   0  0  0  0  0  0  0  0  0  0  0  0
   32.6133   25.8367   41.3108 H   0  0  0  0  0  0  0  0  0  0  0  0
   31.4589   25.6848   43.4686 H   0  0  0  0  0  0  0  0  0  0  0  0
   30.1168   26.7314   42.8870 H   0  0  0  0  0  0  0  0  0  0  0  0
   32.0485   30.8843   37.2510 H   0  0  0  0  0  0  0  0  0  0  0  0
   31.0740   31.7120   38.5205 H   0  0  0  0  0  0  0  0  0  0  0  0
   30.2380   30.7639   37.2427 H   0  0  0  0  0  0  0  0  0  0  0  0
   32.0375   28.7118   45.1132 H   0  0  0  0  0  0  0  0  0  0  0  0
   32.3367   26.9386   45.1598 H   0  0  0  0  0  0  0  0  0  0  0  0
   33.5998   28.0381   44.4929 H   0  0  0  0  0  0  0  0  0  0  0  0
  1  2  1  0
  2  3  2  0
  2  4  1  0
  4  5  2  0
  5  6  1  0
  6  7  2  0
  7  8  1  0
  8  9  2  0
  9 10  1  0
 10 11  2  0
 11 12  1  0
 12 13  2  0
 13 14  1  0
  8 15  1  0
 15 16  2  0
 16 17  1  0
 17 18  1  0
 18 19  1  0
 19 20  1  0
 20 21  1  0
 21 22  2  0
 21 23  1  0
 23 24  1  0
 24 25  2  0
 25 26  1  0
 20 27  1  0
 13  4  1  0
 25 15  1  0
 12  7  1  0
 23 17  2  0
  1 28  1  0
  1 29  1  0
  9 30  1  0
 10 31  1  0
 11 32  1  0
 14 33  1  0
 14 34  1  0
 16 35  1  0
 18 36  1  0
 18 37  1  0
 19 38  1  0
 19 39  1  0
 26 40  1  0
 26 41  1  0
 26 42  1  0
 27 43  1  0
 27 44  1  0
 27 45  1  0
M  END
$$$$
confid_6
     RDKit          3D

 45 48  0  0  0  0  0  0  0  0999 V2000
   24.5500   26.3900   36.2500 N   0  0  0  0  0  0  0  0  0  0  0  0
   25.6000   26.1300   35.4000 C   0  0  0  0  0  0  0  0  0  0  0  0
   25.4300   25.4300   34.4200 O   0  0  0  0  0  0  0  0  0  0  0  0
   26.9800   26.6300   35.7100 C   0  0  0  0  0  0  0  0  0  0  0  0
   27.3200   26.8200   36.9800 N   0  0  0  0  0  0  0  0  0  0  0  0
   28.4700   27.4000   37.3100 N   0  0  0  0  0  0  0  0  0  0  0  0
   29.4000   27.6300   36.3700 C   0  0  0  0  0  0  0  0  0  0  0  0
   30.6600   28.0500   36.8000 C   0  0  0  0  0  0  0  0  0  0  0  0
   31.5700   28.3600   35.7800 C   0  0  0  0  0  0  0  0  0  0  0  0
   31.3700   28.1000   34.4300 C   0  0  0  0  0  0  0  0  0  0  0  0
   30.1200   27.5900   34.0500 C   0  0  0  0  0  0  0  0  0  0  0  0
   29.1500   27.3400   35.0300 C   0  0  0  0  0  0  0  0  0  0  0  0
   27.8800   26.8900   34.6600 C   0  0  0  0  0  0  0  0  0  0  0  0
   27.4800   26.6100   33.3700 N   0  0  0  0  0  0  0  0  0  0  0  0
   30.9920   28.3018   38.2202 C   0  0  0  0  0  0  0  0  0  0  0  0
   31.1389   29.6225   38.6650 C   0  0  0  0  0  0  0  0  0  0  0  0
   31.4306   29.8874   40.0076 C   0  0  0  0  0  0  0  0  0  0  0  0
   31.6562   31.3024   40.4831 C   0  0  0  0  0  0  0  0  0  0  0  0
   31.2625   31.4621   41.9581 C   0  0  0  0  0  0  0  0  0  0  0  0
   31.9006   30.4266   42.7832 N   0  0  0  0  0  0  0  0  0  0  0  0
   31.9278   29.0725   42.2984 C   0  0  0  0  0  0  0  0  0  0  0  0
   32.2340   28.1208   43.0672 O   0  0  0  0  0  0  0  0  0  0  0  0
   31.6068   28.8083   40.8877 C   0  0  0  0  0  0  0  0  0  0  0  0
   31.4821   27.5320   40.4355 N   0  0  0  0  0  0  0  0  0  0  0  0
   31.1879   27.2462   39.1378 C   0  0  0  0  0  0  0  0  0  0  0  0
   31.0800   25.8073   38.7246 C   0  0  0  0  0  0  0  0  0  0  0  0
   32.4450   30.7468   44.1041 C   0  0  0  0  0  0  0  0  0  0  0  0
   24.6740   26.9931   37.0934 H   0  0  0  0  0  0  0  0  0  0  0  0
   23.6001   26.0040   36.0504 H   0  0  0  0  0  0  0  0  0  0  0  0
   32.5334   28.7658   36.0644 H   0  0  0  0  0  0  0  0  0  0  0  0
   32.1361   28.3134   33.6957 H   0  0  0  0  0  0  0  0  0  0  0  0
   29.9366   27.3919   33.0017 H   0  0  0  0  0  0  0  0  0  0  0  0
   27.5827   27.3393   32.6301 H   0  0  0  0  0  0  0  0  0  0  0  0
   27.4182   25.6173   33.0515 H   0  0  0  0  0  0  0  0  0  0  0  0
   31.0189   30.4432   37.9671 H   0  0  0  0  0  0  0  0  0  0  0  0
   32.7317   31.5532   40.3604 H   0  0  0  0  0  0  0  0  0  0  0  0
   31.0599   32.0158   39.8734 H   0  0  0  0  0  0  0  0  0  0  0  0
   31.5509   32.4796   42.2996 H   0  0  0  0  0  0  0  0  0  0  0  0
   30.1588   31.3679   42.0527 H   0  0  0  0  0  0  0  0  0  0  0  0
   30.0143   25.5340   38.5832 H   0  0  0  0  0  0  0  0  0  0  0  0
   31.6364   25.6331   37.7795 H   0  0  0  0  0  0  0  0  0  0  0  0
   31.5122   25.1472   39.5063 H   0  0  0  0  0  0  0  0  0  0  0  0
   33.5278   30.5027   44.1301 H   0  0  0  0  0  0  0  0  0  0  0  0
   31.9171   30.1549   44.8813 H   0  0  0  0  0  0  0  0  0  0  0  0
   32.3203   31.8237   44.3442 H   0  0  0  0  0  0  0  0  0  0  0  0
  1  2  1  0
  2  3  2  0
  2  4  1  0
  4  5  2  0
  5  6  1  0
  6  7  2  0
  7  8  1  0
  8  9  2  0
  9 10  1  0
 10 11  2  0
 11 12  1  0
 12 13  2  0
 13 14  1  0
  8 15  1  0
 15 16  2  0
 16 17  1  0
 17 18  1  0
 18 19  1  0
 19 20  1  0
 20 21  1  0
 21 22  2  0
 21 23  1  0
 23 24  1  0
 24 25  2  0
 25 26  1  0
 20 27  1  0
 13  4  1  0
 25 15  1  0
 12  7  1  0
 23 17  2  0
  1 28  1  0
  1 29  1  0
  9 30  1  0
 10 31  1  0
 11 32  1  0
 14 33  1  0
 14 34  1  0
 16 35  1  0
 18 36  1  0
 18 37  1  0
 19 38  1  0
 19 39  1  0
 26 40  1  0
 26 41  1  0
 26 42  1  0
 27 43  1  0
 27 44  1  0
 27 45  1  0
M  END
$$$$
confid_7
     RDKit          3D

 45 48  0  0  0  0  0  0  0  0999 V2000
   24.5500   26.3900   36.2500 N   0  0  0  0  0  0  0  0  0  0  0  0
   25.6000   26.1300   35.4000 C   0  0  0  0  0  0  0  0  0  0  0  0
   25.4300   25.4300   34.4200 O   0  0  0  0  0  0  0  0  0  0  0  0
   26.9800   26.6300   35.7100 C   0  0  0  0  0  0  0  0  0  0  0  0
   27.3200   26.8200   36.9800 N   0  0  0  0  0  0  0  0  0  0  0  0
   28.4700   27.4000   37.3100 N   0  0  0  0  0  0  0  0  0  0  0  0
   29.4000   27.6300   36.3700 C   0  0  0  0  0  0  0  0  0  0  0  0
   30.6600   28.0500   36.8000 C   0  0  0  0  0  0  0  0  0  0  0  0
   31.5700   28.3600   35.7800 C   0  0  0  0  0  0  0  0  0  0  0  0
   31.3700   28.1000   34.4300 C   0  0  0  0  0  0  0  0  0  0  0  0
   30.1200   27.5900   34.0500 C   0  0  0  0  0  0  0  0  0  0  0  0
   29.1500   27.3400   35.0300 C   0  0  0  0  0  0  0  0  0  0  0  0
   27.8800   26.8900   34.6600 C   0  0  0  0  0  0  0  0  0  0  0  0
   27.4800   26.6100   33.3700 N   0  0  0  0  0  0  0  0  0  0  0  0
   30.9884   28.3238   38.2196 C   0  0  0  0  0  0  0  0  0  0  0  0
   30.2848   29.3215   38.9103 C   0  0  0  0  0  0  0  0  0  0  0  0
   30.5974   29.6154   40.2419 C   0  0  0  0  0  0  0  0  0  0  0  0
   29.7963   30.6352   41.0149 C   0  0  0  0  0  0  0  0  0  0  0  0
   30.6504   31.3067   42.0992 C   0  0  0  0  0  0  0  0  0  0  0  0
   31.3278   30.2993   42.9278 N   0  0  0  0  0  0  0  0  0  0  0  0
   31.9350   29.1657   42.2831 C   0  0  0  0  0  0  0  0  0  0  0  0
   32.7314   28.4183   42.9137 O   0  0  0  0  0  0  0  0  0  0  0  0
   31.6065   28.8771   40.8789 C   0  0  0  0  0  0  0  0  0  0  0  0
   32.2730   27.9061   40.1997 N   0  0  0  0  0  0  0  0  0  0  0  0
   31.9969   27.6066   38.9010 C   0  0  0  0  0  0  0  0  0  0  0  0
   32.7806   26.5146   38.2336 C   0  0  0  0  0  0  0  0  0  0  0  0
   31.4422   30.4706   44.3773 C   0  0  0  0  0  0  0  0  0  0  0  0
   23.6001   26.0040   36.0503 H   0  0  0  0  0  0  0  0  0  0  0  0
   24.6739   26.9932   37.0933 H   0  0  0  0  0  0  0  0  0  0  0  0
   32.5275   28.7812   36.0614 H   0  0  0  0  0  0  0  0  0  0  0  0
   32.1329   28.3219   33.6949 H   0  0  0  0  0  0  0  0  0  0  0  0
   29.9371   27.4184   32.9982 H   0  0  0  0  0  0  0  0  0  0  0  0
   26.5962   27.0149   32.9873 H   0  0  0  0  0  0  0  0  0  0  0  0
   28.1243   26.1388   32.6978 H   0  0  0  0  0  0  0  0  0  0  0  0
   29.4984   29.8733   38.4083 H   0  0  0  0  0  0  0  0  0  0  0  0
   28.9325   30.1239   41.4914 H   0  0  0  0  0  0  0  0  0  0  0  0
   29.4038   31.4190   40.3310 H   0  0  0  0  0  0  0  0  0  0  0  0
   29.9981   31.9604   42.7178 H   0  0  0  0  0  0  0  0  0  0  0  0
   31.4177   31.9479   41.6134 H   0  0  0  0  0  0  0  0  0  0  0  0
   32.0984   25.8241   37.6943 H   0  0  0  0  0  0  0  0  0  0  0  0
   33.5052   26.9553   37.5181 H   0  0  0  0  0  0  0  0  0  0  0  0
   33.3438   25.9253   38.9880 H   0  0  0  0  0  0  0  0  0  0  0  0
   30.9500   31.4067   44.7154 H   0  0  0  0  0  0  0  0  0  0  0  0
   32.5133   30.5180   44.6664 H   0  0  0  0  0  0  0  0  0  0  0  0
   30.9611   29.6131   44.8931 H   0  0  0  0  0  0  0  0  0  0  0  0
  1  2  1  0
  2  3  2  0
  2  4  1  0
  4  5  2  0
  5  6  1  0
  6  7  2  0
  7  8  1  0
  8  9  2  0
  9 10  1  0
 10 11  2  0
 11 12  1  0
 12 13  2  0
 13 14  1  0
  8 15  1  0
 15 16  2  0
 16 17  1  0
 17 18  1  0
 18 19  1  0
 19 20  1  0
 20 21  1  0
 21 22  2  0
 21 23  1  0
 23 24  1  0
 24 25  2  0
 25 26  1  0
 20 27  1  0
 13  4  1  0
 25 15  1  0
 12  7  1  0
 23 17  2  0
  1 28  1  0
  1 29  1  0
  9 30  1  0
 10 31  1  0
 11 32  1  0
 14 33  1  0
 14 34  1  0
 16 35  1  0
 18 36  1  0
 18 37  1  0
 19 38  1  0
 19 39  1  0
 26 40  1  0
 26 41  1  0
 26 42  1  0
 27 43  1  0
 27 44  1  0
 27 45  1  0
M  END
$$$$
