confid_0
     RDKit          3D

 45 48  0  0  0  0  0  0  0  0999 V2000
   24.5700   26.8800   35.5900 N   0  0  0  0  0  0  0  0  0  0  0  0
   25.5000   26.4000   34.6900 C   0  0  0  0  0  0  0  0  0  0  0  0
   25.1700   25.5200   33.9100 O   0  0  0  0  0  0  0  0  0  0  0  0
   26.8400   27.0200   34.7400 C   0  0  0  0  0  0  0  0  0  0  0  0
   27.3800   27.2800   35.9400 N   0  0  0  0  0  0  0  0  0  0  0  0
   28.6200   27.7400   36.0300 N   0  0  0  0  0  0  0  0  0  0  0  0
   29.3800   28.0000   34.9600 C   0  0  0  0  0  0  0  0  0  0  0  0
   30.6700   28.5000   35.1300 C   0  0  0  0  0  0  0  0  0  0  0  0
   31.5400   28.6100   34.0300 C   0  0  0  0  0  0  0  0  0  0  0  0
   31.0900   28.2200   32.7700 C   0  0  0  0  0  0  0  0  0  0  0  0
   29.8000   27.7000   32.6000 C   0  0  0  0  0  0  0  0  0  0  0  0
   28.9600   27.5500   33.7100 C   0  0  0  0  0  0  0  0  0  0  0  0
   27.6600   27.0300   33.5900 C   0  0  0  0  0  0  0  0  0  0  0  0
   27.1600   26.7400   32.3400 N   0  0  0  0  0  0  0  0  0  0  0  0
   23.3281   26.2182   35.9039 C   0  0  0  0  0  0  0  0  0  0  0  0
   23.1603   24.8910   35.6051 N   0  0  0  0  0  0  0  0  0  0  0  0
   22.0212   24.2109   35.9141 C   0  0  0  0  0  0  0  0  0  0  0  0
   20.9982   24.8900   36.5662 C   0  0  0  0  0  0  0  0  0  0  0  0
   19.7041   24.4176   36.9858 C   0  0  0  0  0  0  0  0  0  0  0  0
   19.2802   23.2420   36.8304 O   0  0  0  0  0  0  0  0  0  0  0  0
   18.9336   25.5229   37.6273 C   0  0  0  0  0  0  0  0  0  0  0  0
   19.8930   26.7363   37.5691 C   0  0  0  0  0  0  0  0  0  0  0  0
   21.1241   26.2125   36.8918 C   0  0  0  0  0  0  0  0  0  0  0  0
   22.2901   26.9173   36.5682 C   0  0  0  0  0  0  0  0  0  0  0  0
   22.4072   28.3132   36.8765 N   0  0  0  0  0  0  0  0  0  0  0  0
   22.1635   29.2988   35.8252 C   0  0  0  0  0  0  0  0  0  0  0  0
   22.6175   28.7453   38.2567 C   0  0  0  0  0  0  0  0  0  0  0  0
   24.7783   27.7815   36.0771 H   0  0  0  0  0  0  0  0  0  0  0  0
   31.0179   28.7883   36.1144 H   0  0  0  0  0  0  0  0  0  0  0  0
   32.5424   28.9969   34.1597 H   0  0  0  0  0  0  0  0  0  0  0  0
   31.7487   28.3095   31.9157 H   0  0  0  0  0  0  0  0  0  0  0  0
   29.5077   27.3814   31.6086 H   0  0  0  0  0  0  0  0  0  0  0  0
   27.2452   27.4249   31.5562 H   0  0  0  0  0  0  0  0  0  0  0  0
   26.7450   25.8075   32.1268 H   0  0  0  0  0  0  0  0  0  0  0  0
   21.9220   23.1651   35.6558 H   0  0  0  0  0  0  0  0  0  0  0  0
   18.0037   25.7244   37.0535 H   0  0  0  0  0  0  0  0  0  0  0  0
   18.6891   25.2595   38.6787 H   0  0  0  0  0  0  0  0  0  0  0  0
   20.1391   27.0897   38.5931 H   0  0  0  0  0  0  0  0  0  0  0  0
   19.4499   27.5633   36.9737 H   0  0  0  0  0  0  0  0  0  0  0  0
   21.1510   29.1457   35.3957 H   0  0  0  0  0  0  0  0  0  0  0  0
   22.9203   29.1880   35.0207 H   0  0  0  0  0  0  0  0  0  0  0  0
   22.2242   30.3323   36.2283 H   0  0  0  0  0  0  0  0  0  0  0  0
   21.6923   29.2207   38.6446 H   0  0  0  0  0  0  0  0  0  0  0  0
   23.4509   29.4779   38.2973 H   0  0  0  0  0  0  0  0  0  0  0  0
   22.8786   27.8816   38.9056 H   0  0  0  0  0  0  0  0  0  0  0  0
  1  2  1  0
  2  3  2  0
  2  4  1  0
  4  5  2  0
  5  6  1  0
  6  7  2  0
  7  8  1  0
  8  9  2  0
  9 10  1  0
 10 11  2  0
 11 12  1  0
 12 13  2  0
 13 14  1  0
  1 15  1  0
 15 16  2  0
 16 17  1  0
 17 18  2  0
 18 19  1  0
 19 20  2  0
 19 21  1  0
 21 22  1  0
 22 23  1  0
 23 24  2  0
 24 25  1  0
 25 26  1  0
 25 27  1  0
 13  4  1  0
 24 15  1  0
 12  7  1  0
 23 18  1  0
  1 28  1  0
  8 29  1  0
  9 30  1  0
 10 31  1  0
 11 32  1  0
 14 33  1  0
 14 34  1  0
 17 35  1  0
 21 36  1  0
 21 37  1  0
 22 38  1  0
 22 39  1  0
 26 40  1  0
 26 41  1  0
 26 42  1  0
 27 43  1  0
 27 44  1  0
 27 45  1  0
M  END
$$$$
confid_1
     RDKit          3D

 45 48  0  0  0  0  0  0  0  0999 V2000
   24.5700   26.8800   35.5900 N   0  0  0  0  0  0  0  0  0  0  0  0
   25.5000   26.4000   34.6900 C   0  0  0  0  0  0  0  0  0  0  0  0
   25.1700   25.5200   33.9100 O   0  0  0  0  0  0  0  0  0  0  0  0
   26.8400   27.0200   34.7400 C   0  0  0  0  0  0  0  0  0  0  0  0
   27.3800   27.2800   35.9400 N   0  0  0  0  0  0  0  0  0  0  0  0
   28.6200   27.7400   36.0300 N   0  0  0  0  0  0  0  0  0  0  0  0
   29.3800   28.0000   34.9600 C   0  0  0  0  0  0  0  0  0  0  0  0
   30.6700   28.5000   35.1300 C   0  0  0  0  0  0  0  0  0  0  0  0
   31.5400   28.6100   34.0300 C   0  0  0  0  0  0  0  0  0  0  0  0
   31.0900   28.2200   32.7700 C   0  0  0  0  0  0  0  0  0  0  0  0
   29.8000   27.7000   32.6000 C   0  0  0  0  0  0  0  0  0  0  0  0
   28.9600   27.5500   33.7100 C   0  0  0  0  0  0  0  0  0  0  0  0
   27.6600   27.0300   33.5900 C   0  0  0  0  0  0  0  0  0  0  0  0
   27.1600   26.7400   32.3400 N   0  0  0  0  0  0  0  0  0  0  0  0
   23.3298   26.2191   35.9209 C   0  0  0  0  0  0  0  0  0  0  0  0
   23.0779   24.9514   35.4641 N   0  0  0  0  0  0  0  0  0  0  0  0
   21.9232   24.2867   35.7480 C   0  0  0  0  0  0  0  0  0  0  0  0
   20.9666   24.9220   36.5316 C   0  0  0  0  0  0  0  0  0  0  0  0
   19.6752   24.4544   36.9643 C   0  0  0  0  0  0  0  0  0  0  0  0
   19.1851   23.3284   36.6855 O   0  0  0  0  0  0  0  0  0  0  0  0
   18.9985   25.4967   37.7906 C   0  0  0  0  0  0  0  0  0  0  0  0
   20.0114   26.6668   37.8275 C   0  0  0  0  0  0  0  0  0  0  0  0
   21.1763   26.1834   37.0164 C   0  0  0  0  0  0  0  0  0  0  0  0
   22.3652   26.8661   36.7336 C   0  0  0  0  0  0  0  0  0  0  0  0
   22.5827   28.1871   37.2459 N   0  0  0  0  0  0  0  0  0  0  0  0
   23.2202   28.3531   38.5504 C   0  0  0  0  0  0  0  0  0  0  0  0
   22.0575   29.3452   36.5263 C   0  0  0  0  0  0  0  0  0  0  0  0
   24.7783   27.7908   36.0585 H   0  0  0  0  0  0  0  0  0  0  0  0
   31.0179   28.7883   36.1144 H   0  0  0  0  0  0  0  0  0  0  0  0
   32.5424   28.9969   34.1597 H   0  0  0  0  0  0  0  0  0  0  0  0
   31.7487   28.3095   31.9157 H   0  0  0  0  0  0  0  0  0  0  0  0
   29.5077   27.3814   31.6086 H   0  0  0  0  0  0  0  0  0  0  0  0
   26.7450   25.8075   32.1268 H   0  0  0  0  0  0  0  0  0  0  0  0
   27.2453   27.4248   31.5562 H   0  0  0  0  0  0  0  0  0  0  0  0
   21.7593   23.2879   35.3661 H   0  0  0  0  0  0  0  0  0  0  0  0
   18.0476   25.8098   37.3086 H   0  0  0  0  0  0  0  0  0  0  0  0
   18.8034   25.1078   38.8129 H   0  0  0  0  0  0  0  0  0  0  0  0
   20.3295   26.8784   38.8705 H   0  0  0  0  0  0  0  0  0  0  0  0
   19.5763   27.5795   37.3669 H   0  0  0  0  0  0  0  0  0  0  0  0
   23.2726   29.4265   38.8323 H   0  0  0  0  0  0  0  0  0  0  0  0
   22.6394   27.8118   39.3261 H   0  0  0  0  0  0  0  0  0  0  0  0
   24.2518   27.9442   38.5191 H   0  0  0  0  0  0  0  0  0  0  0  0
   22.8580   30.1048   36.4031 H   0  0  0  0  0  0  0  0  0  0  0  0
   21.2148   29.7881   37.0974 H   0  0  0  0  0  0  0  0  0  0  0  0
   21.6933   29.0523   35.5179 H   0  0  0  0  0  0  0  0  0  0  0  0
  1  2  1  0
  2  3  2  0
  2  4  1  0
  4  5  2  0
  5  6  1  0
  6  7  2  0
  7  8  1  0
  8  9  2  0
  9 10  1  0
 10 11  2  0
 11 12  1  0
 12 13  2  0
 13 14  1  0
  1 15  1  0
 15 16  2  0
 16 17  1  0
 17 18  2  0
 18 19  1  0
 19 20  2  0
 19 21  1  0
 21 22  1  0
 22 23  1  0
 23 24  2  0
 24 25  1  0
 25 26  1  0
 25 27  1  0
 13  4  1  0
 24 15  1  0
 12  7  1  0
 23 18  1  0
  1 28  1  0
  8 29  1  0
  9 30  1  0
 10 31  1  0
 11 32  1  0
 14 33  1  0
 14 34  1  0
 17 35  1  0
 21 36  1  0
 21 37  1  0
 22 38  1  0
 22 39  1  0
 26 40  1  0
 26 41  1  0
 26 42  1  0
 27 43  1  0
 27 44  1  0
 27 45  1  0
M  END
$$$$
confid_2
     RDKit          3D

 45 48  0  0  0  0  0  0  0  0999 V2000
   24.5700   26.8800   35.5900 N   0  0  0  0  0  0  0  0  0  0  0  0
   25.5000   26.4000   34.6900 C   0  0  0  0  0  0  0  0  0  0  0  0
   25.1700   25.5200   33.9100 O   0  0  0  0  0  0  0  0  0  0  0  0
   26.8400   27.0200   34.7400 C   0  0  0  0  0  0  0  0  0  0  0  0
   27.3800   27.2800   35.9400 N   0  0  0  0  0  0  0  0  0  0  0  0
   28.6200   27.7400   36.0300 N   0  0  0  0  0  0  0  0  0  0  0  0
   29.3800   28.0000   34.9600 C   0  0  0  0  0  0  0  0  0  0  0  0
   30.6700   28.5000   35.1300 C   0  0  0  0  0  0  0  0  0  0  0  0
   31.5400   28.6100   34.0300 C   0  0  0  0  0  0  0  0  0  0  0  0
   31.0900   28.2200   32.7700 C   0  0  0  0  0  0  0  0  0  0  0  0
   29.8000   27.7000   32.6000 C   0  0  0  0  0  0  0  0  0  0  0  0
   28.9600   27.5500   33.7100 C   0  0  0  0  0  0  0  0  0  0  0  0
   27.6600   27.0300   33.5900 C   0  0  0  0  0  0  0  0  0  0  0  0
   27.1600   26.7400   32.3400 N   0  0  0  0  0  0  0  0  0  0  0  0
   23.3284   26.2173   35.8997 C   0  0  0  0  0  0  0  0  0  0  0  0
   23.1828   24.8785   35.6437 N   0  0  0  0  0  0  0  0  0  0  0  0
   22.0464   24.1944   35.9544 C   0  0  0  0  0  0  0  0  0  0  0  0
   21.0028   24.8821   36.5633 C   0  0  0  0  0  0  0  0  0  0  0  0
   19.7076   24.4080   36.9778 C   0  0  0  0  0  0  0  0  0  0  0  0
   19.3010   23.2223   36.8573 O   0  0  0  0  0  0  0  0  0  0  0  0
   18.9131   25.5251   37.5682 C   0  0  0  0  0  0  0  0  0  0  0  0
   19.8555   26.7498   37.4760 C   0  0  0  0  0  0  0  0  0  0  0  0
   21.1058   26.2166   36.8435 C   0  0  0  0  0  0  0  0  0  0  0  0
   22.2676   26.9256   36.5187 C   0  0  0  0  0  0  0  0  0  0  0  0
   22.3482   28.3341   36.7819 N   0  0  0  0  0  0  0  0  0  0  0  0
   22.7197   28.8002   38.1157 C   0  0  0  0  0  0  0  0  0  0  0  0
   22.3133   29.2862   35.6734 C   0  0  0  0  0  0  0  0  0  0  0  0
   24.7808   27.7763   36.0842 H   0  0  0  0  0  0  0  0  0  0  0  0
   31.0179   28.7883   36.1144 H   0  0  0  0  0  0  0  0  0  0  0  0
   32.5424   28.9969   34.1597 H   0  0  0  0  0  0  0  0  0  0  0  0
   31.7487   28.3095   31.9157 H   0  0  0  0  0  0  0  0  0  0  0  0
   29.5077   27.3814   31.6086 H   0  0  0  0  0  0  0  0  0  0  0  0
   26.7450   25.8075   32.1268 H   0  0  0  0  0  0  0  0  0  0  0  0
   27.2452   27.4249   31.5562 H   0  0  0  0  0  0  0  0  0  0  0  0
   21.9655   23.1389   35.7314 H   0  0  0  0  0  0  0  0  0  0  0  0
   17.9873   25.6911   36.9767 H   0  0  0  0  0  0  0  0  0  0  0  0
   18.6600   25.2975   38.6259 H   0  0  0  0  0  0  0  0  0  0  0  0
   19.4119   27.5431   36.8365 H   0  0  0  0  0  0  0  0  0  0  0  0
   20.0779   27.1528   38.4872 H   0  0  0  0  0  0  0  0  0  0  0  0
   22.0975   29.6759   38.3965 H   0  0  0  0  0  0  0  0  0  0  0  0
   22.5604   28.0014   38.8717 H   0  0  0  0  0  0  0  0  0  0  0  0
   23.7902   29.0939   38.1243 H   0  0  0  0  0  0  0  0  0  0  0  0
   21.6615   30.1457   35.9367 H   0  0  0  0  0  0  0  0  0  0  0  0
   23.3372   29.6590   35.4620 H   0  0  0  0  0  0  0  0  0  0  0  0
   21.9056   28.8077   34.7569 H   0  0  0  0  0  0  0  0  0  0  0  0
  1  2  1  0
  2  3  2  0
  2  4  1  0
  4  5  2  0
  5  6  1  0
  6  7  2  0
  7  8  1  0
  8  9  2  0
  9 10  1  0
 10 11  2  0
 11 12  1  0
 12 13  2  0
 13 14  1  0
  1 15  1  0
 15 16  2  0
 16 17  1  0
 17 18  2  0
 18 19  1  0
 19 20  2  0
 19 21  1  0
 21 22  1  0
 22 23  1  0
 23 24  2  0
 24 25  1  0
 25 26  1  0
 25 27  1  0
 13  4  1  0
 24 15  1  0
 12  7  1  0
 23 18  1  0
  1 28  1  0
  8 29  1  0
  9 30  1  0
 10 31  1  0
 11 32  1  0
 14 33  1  0
 14 34  1  0
 17 35  1  0
 21 36  1  0
 21 37  1  0
 22 38  1  0
 22 39  1  0
 26 40  1  0
 26 41  1  0
 26 42  1  0
 27 43  1  0
 27 44  1  0
 27 45  1  0
M  END
$$$$
confid_3
     RDKit          3D

 45 48  0  0  0  0  0  0  0  0999 V2000
   24.5700   26.8800   35.5900 N   0  0  0  0  0  0  0  0  0  0  0  0
   25.5000   26.4000   34.6900 C   0  0  0  0  0  0  0  0  0  0  0  0
   25.1700   25.5200   33.9100 O   0  0  0  0  0  0  0  0  0  0  0  0
   26.8400   27.0200   34.7400 C   0  0  0  0  0  0  0  0  0  0  0  0
   27.3800   27.2800   35.9400 N   0  0  0  0  0  0  0  0  0  0  0  0
   28.6200   27.7400   36.0300 N   0  0  0  0  0  0  0  0  0  0  0  0
   29.3800   28.0000   34.9600 C   0  0  0  0  0  0  0  0  0  0  0  0
   30.6700   28.5000   35.1300 C   0  0  0  0  0  0  0  0  0  0  0  0
   31.5400   28.6100   34.0300 C   0  0  0  0  0  0  0  0  0  0  0  0
   31.0900   28.2200   32.7700 C   0  0  0  0  0  0  0  0  0  0  0  0
   29.8000   27.7000   32.6000 C   0  0  0  0  0  0  0  0  0  0  0  0
   28.9600   27.5500   33.7100 C   0  0  0  0  0  0  0  0  0  0  0  0
   27.6600   27.0300   33.5900 C   0  0  0  0  0  0  0  0  0  0  0  0
   27.1600   26.7400   32.3400 N   0  0  0  0  0  0  0  0  0  0  0  0
   23.2023   26.4270   35.6862 C   0  0  0  0  0  0  0  0  0  0  0  0
   22.6382   25.7049   34.6672 N   0  0  0  0  0  0  0  0  0  0  0  0
   21.3470   25.2741   34.7028 C   0  0  0  0  0  0  0  0  0  0  0  0
   20.5725   25.5875   35.8134 C   0  0  0  0  0  0  0  0  0  0  0  0
   19.2113   25.2246   36.1120 C   0  0  0  0  0  0  0  0  0  0  0  0
   18.4612   24.5532   35.3556 O   0  0  0  0  0  0  0  0  0  0  0  0
   18.8194   25.7483   37.4525 C   0  0  0  0  0  0  0  0  0  0  0  0
   20.0793   26.4982   37.9482 C   0  0  0  0  0  0  0  0  0  0  0  0
   21.0873   26.3147   36.8519 C   0  0  0  0  0  0  0  0  0  0  0  0
   22.4184   26.7553   36.8214 C   0  0  0  0  0  0  0  0  0  0  0  0
   22.9834   27.4736   37.9295 N   0  0  0  0  0  0  0  0  0  0  0  0
   23.8202   26.7585   38.8906 C   0  0  0  0  0  0  0  0  0  0  0  0
   22.4821   28.8023   38.2747 C   0  0  0  0  0  0  0  0  0  0  0  0
   24.8679   27.6351   36.2486 H   0  0  0  0  0  0  0  0  0  0  0  0
   31.0178   28.7888   36.1143 H   0  0  0  0  0  0  0  0  0  0  0  0
   32.5416   28.9991   34.1593 H   0  0  0  0  0  0  0  0  0  0  0  0
   31.7454   28.3188   31.9142 H   0  0  0  0  0  0  0  0  0  0  0  0
   29.5013   27.4243   31.5992 H   0  0  0  0  0  0  0  0  0  0  0  0
   26.1710   26.9653   32.0921 H   0  0  0  0  0  0  0  0  0  0  0  0
   27.7097   26.1833   31.6493 H   0  0  0  0  0  0  0  0  0  0  0  0
   20.9409   24.6965   33.8831 H   0  0  0  0  0  0  0  0  0  0  0  0
   17.9556   26.4407   37.3564 H   0  0  0  0  0  0  0  0  0  0  0  0
   18.5658   24.9068   38.1323 H   0  0  0  0  0  0  0  0  0  0  0  0
   20.4566   26.0572   38.8958 H   0  0  0  0  0  0  0  0  0  0  0  0
   19.8551   27.5769   38.0876 H   0  0  0  0  0  0  0  0  0  0  0  0
   24.3171   25.8892   38.4087 H   0  0  0  0  0  0  0  0  0  0  0  0
   23.1932   26.3952   39.7317 H   0  0  0  0  0  0  0  0  0  0  0  0
   24.6086   27.4335   39.2856 H   0  0  0  0  0  0  0  0  0  0  0  0
   23.3312   29.4671   38.5391 H   0  0  0  0  0  0  0  0  0  0  0  0
   21.9418   29.2539   37.4150 H   0  0  0  0  0  0  0  0  0  0  0  0
   21.7939   28.7317   39.1428 H   0  0  0  0  0  0  0  0  0  0  0  0
  1  2  1  0
  2  3  2  0
  2  4  1  0
  4  5  2  0
  5  6  1  0
  6  7  2  0
  7  8  1  0
  8  9  2  0
  9 10  1  0
 10 11  2  0
 11 12  1  0
 12 13  2  0
 13 14  1  0
  1 15  1  0
 15 16  2  0
 16 17  1  0
 17 18  2  0
 18 19  1  0
 19 20  2  0
 19 21  1  0
 21 22  1  0
 22 23  1  0
 23 24  2  0
 24 25  1  0
 25 26  1  0
 25 27  1  0
 13  4  1  0
 24 15  1  0
 12  7  1  0
 23 18  1  0
  1 28  1  0
  8 29  1  0
  9 30  1  0
 10 31  1  0
 11 32  1  0
 14 33  1  0
 14 34  1  0
 17 35  1  0
 21 36  1  0
 21 37  1  0
 22 38  1  0
 22 39  1  0
 26 40  1  0
 26 41  1  0
 26 42  1  0
 27 43  1  0
 27 44  1  0
 27 45  1  0
M  END
$$$$
confid_4
     RDKit          3D

 45 48  0  0  0  0  0  0  0  0999 V2000
   24.5700   26.8800   35.5900 N   0  0  0  0  0  0  0  0  0  0  0  0
   25.5000   26.4000   34.6900 C   0  0  0  0  0  0  0  0  0  0  0  0
   25.1700   25.5200   33.9100 O   0  0  0  0  0  0  0  0  0  0  0  0
   26.8400   27.0200   34.7400 C   0  0  0  0  0  0  0  0  0  0  0  0
   27.3800   27.2800   35.9400 N   0  0  0  0  0  0  0  0  0  0  0  0
   28.6200   27.7400   36.0300 N   0  0  0  0  0  0  0  0  0  0  0  0
   29.3800   28.0000   34.9600 C   0  0  0  0  0  0  0  0  0  0  0  0
   30.6700   28.5000   35.1300 C   0  0  0  0  0  0  0  0  0  0  0  0
   31.5400   28.6100   34.0300 C   0  0  0  0  0  0  0  0  0  0  0  0
   31.0900   28.2200   32.7700 C   0  0  0  0  0  0  0  0  0  0  0  0
   29.8000   27.7000   32.6000 C   0  0  0  0  0  0  0  0  0  0  0  0
   28.9600   27.5500   33.7100 C   0  0  0  0  0  0  0  0  0  0  0  0
   27.6600   27.0300   33.5900 C   0  0  0  0  0  0  0  0  0  0  0  0
   27.1600   26.7400   32.3400 N   0  0  0  0  0  0  0  0  0  0  0  0
   23.3291   26.2200   35.9198 C   0  0  0  0  0  0  0  0  0  0  0  0
   23.0765   24.9525   35.4624 N   0  0  0  0  0  0  0  0  0  0  0  0
   21.9210   24.2888   35.7452 C   0  0  0  0  0  0  0  0  0  0  0  0
   20.9643   24.9246   36.5282 C   0  0  0  0  0  0  0  0  0  0  0  0
   19.6721   24.4579   36.9596 C   0  0  0  0  0  0  0  0  0  0  0  0
   19.1813   23.3324   36.6800 O   0  0  0  0  0  0  0  0  0  0  0  0
   18.9956   25.5006   37.7857 C   0  0  0  0  0  0  0  0  0  0  0  0
   20.0094   26.6698   37.8238 C   0  0  0  0  0  0  0  0  0  0  0  0
   21.1746   26.1857   37.0135 C   0  0  0  0  0  0  0  0  0  0  0  0
   22.3643   26.8675   36.7318 C   0  0  0  0  0  0  0  0  0  0  0  0
   22.5823   28.1883   37.2444 N   0  0  0  0  0  0  0  0  0  0  0  0
   22.0590   29.3468   36.5242 C   0  0  0  0  0  0  0  0  0  0  0  0
   23.2184   28.3539   38.5497 C   0  0  0  0  0  0  0  0  0  0  0  0
   24.7787   27.7903   36.0591 H   0  0  0  0  0  0  0  0  0  0  0  0
   31.0179   28.7883   36.1144 H   0  0  0  0  0  0  0  0  0  0  0  0
   32.5424   28.9969   34.1597 H   0  0  0  0  0  0  0  0  0  0  0  0
   31.7487   28.3095   31.9157 H   0  0  0  0  0  0  0  0  0  0  0  0
   29.5077   27.3814   31.6086 H   0  0  0  0  0  0  0  0  0  0  0  0
   26.7450   25.8075   32.1268 H   0  0  0  0  0  0  0  0  0  0  0  0
   27.2453   27.4248   31.5562 H   0  0  0  0  0  0  0  0  0  0  0  0
   21.7567   23.2902   35.3629 H   0  0  0  0  0  0  0  0  0  0  0  0
   18.0454   25.8146   37.3030 H   0  0  0  0  0  0  0  0  0  0  0  0
   18.7993   25.1115   38.8077 H   0  0  0  0  0  0  0  0  0  0  0  0
   20.3269   26.8808   38.8671 H   0  0  0  0  0  0  0  0  0  0  0  0
   19.5755   27.5831   37.3631 H   0  0  0  0  0  0  0  0  0  0  0  0
   21.2158   29.7903   37.0942 H   0  0  0  0  0  0  0  0  0  0  0  0
   21.6958   29.0542   35.5153 H   0  0  0  0  0  0  0  0  0  0  0  0
   22.8601   30.1058   36.4020 H   0  0  0  0  0  0  0  0  0  0  0  0
   24.2498   27.9443   38.5195 H   0  0  0  0  0  0  0  0  0  0  0  0
   23.2712   29.4272   38.8317 H   0  0  0  0  0  0  0  0  0  0  0  0
   22.6363   27.8129   39.3247 H   0  0  0  0  0  0  0  0  0  0  0  0
  1  2  1  0
  2  3  2  0
  2  4  1  0
  4  5  2  0
  5  6  1  0
  6  7  2  0
  7  8  1  0
  8  9  2  0
  9 10  1  0
 10 11  2  0
 11 12  1  0
 12 13  2  0
 13 14  1  0
  1 15  1  0
 15 16  2  0
 16 17  1  0
 17 18  2  0
 18 19  1  0
 19 20  2  0
 19 21  1  0
 21 22  1  0
 22 23  1  0
 23 24  2  0
 24 25  1  0
 25 26  1  0
 25 27  1  0
 13  4  1  0
 24 15  1  0
 12  7  1  0
 23 18  1  0
  1 28  1  0
  8 29  1  0
  9 30  1  0
 10 31  1  0
 11 32  1  0
 14 33  1  0
 14 34  1  0
 17 35  1  0
 21 36  1  0
 21 37  1  0
 22 38  1  0
 22 39  1  0
 26 40  1  0
 26 41  1  0
 26 42  1  0
 27 43  1  0
 27 44  1  0
 27 45  1  0
M  END
$$$$
confid_5
     RDKit          3D

 45 48  0  0  0  0  0  0  0  0999 V2000
   24.5700   26.8800   35.5900 N   0  0  0  0  0  0  0  0  0  0  0  0
   25.5000   26.4000   34.6900 C   0  0  0  0  0  0  0  0  0  0  0  0
   25.1700   25.5200   33.9100 O   0  0  0  0  0  0  0  0  0  0  0  0
   26.8400   27.0200   34.7400 C   0  0  0  0  0  0  0  0  0  0  0  0
   27.3800   27.2800   35.9400 N   0  0  0  0  0  0  0  0  0  0  0  0
   28.6200   27.7400   36.0300 N   0  0  0  0  0  0  0  0  0  0  0  0
   29.3800   28.0000   34.9600 C   0  0  0  0  0  0  0  0  0  0  0  0
   30.6700   28.5000   35.1300 C   0  0  0  0  0  0  0  0  0  0  0  0
   31.5400   28.6100   34.0300 C   0  0  0  0  0  0  0  0  0  0  0  0
   31.0900   28.2200   32.7700 C   0  0  0  0  0  0  0  0  0  0  0  0
   29.8000   27.7000   32.6000 C   0  0  0  0  0  0  0  0  0  0  0  0
   28.9600   27.5500   33.7100 C   0  0  0  0  0  0  0  0  0  0  0  0
   27.6600   27.0300   33.5900 C   0  0  0  0  0  0  0  0  0  0  0  0
   27.1600   26.7400   32.3400 N   0  0  0  0  0  0  0  0  0  0  0  0
   23.2628   26.3095   35.8221 C   0  0  0  0  0  0  0  0  0  0  0  0
   22.7947   25.2967   35.0256 N   0  0  0  0  0  0  0  0  0  0  0  0
   21.5624   24.7413   35.1938 C   0  0  0  0  0  0  0  0  0  0  0  0
   20.7486   25.2266   36.2107 C   0  0  0  0  0  0  0  0  0  0  0  0
   19.4256   24.8153   36.6039 C   0  0  0  0  0  0  0  0  0  0  0  0
   18.7575   23.9053   36.0461 O   0  0  0  0  0  0  0  0  0  0  0  0
   18.9599   25.6205   37.7709 C   0  0  0  0  0  0  0  0  0  0  0  0
   20.1371   26.5831   38.0603 C   0  0  0  0  0  0  0  0  0  0  0  0
   21.1710   26.2356   37.0312 C   0  0  0  0  0  0  0  0  0  0  0  0
   22.4403   26.8030   36.8668 C   0  0  0  0  0  0  0  0  0  0  0  0
   22.8915   27.8386   37.7501 N   0  0  0  0  0  0  0  0  0  0  0  0
   23.7108   27.4826   38.9068 C   0  0  0  0  0  0  0  0  0  0  0  0
   22.4090   29.2075   37.5808 C   0  0  0  0  0  0  0  0  0  0  0  0
   24.8278   27.7289   36.1426 H   0  0  0  0  0  0  0  0  0  0  0  0
   31.0178   28.7888   36.1143 H   0  0  0  0  0  0  0  0  0  0  0  0
   32.5416   28.9991   34.1593 H   0  0  0  0  0  0  0  0  0  0  0  0
   31.7454   28.3188   31.9142 H   0  0  0  0  0  0  0  0  0  0  0  0
   29.5013   27.4243   31.5992 H   0  0  0  0  0  0  0  0  0  0  0  0
   26.1711   26.9654   32.0920 H   0  0  0  0  0  0  0  0  0  0  0  0
   27.7097   26.1833   31.6493 H   0  0  0  0  0  0  0  0  0  0  0  0
   21.2305   23.9410   34.5460 H   0  0  0  0  0  0  0  0  0  0  0  0
   18.0410   26.1853   37.5043 H   0  0  0  0  0  0  0  0  0  0  0  0
   18.7666   24.9571   38.6410 H   0  0  0  0  0  0  0  0  0  0  0  0
   19.8177   27.6404   37.9411 H   0  0  0  0  0  0  0  0  0  0  0  0
   20.5413   26.4173   39.0819 H   0  0  0  0  0  0  0  0  0  0  0  0
   24.6731   27.0456   38.5670 H   0  0  0  0  0  0  0  0  0  0  0  0
   23.9280   28.3768   39.5294 H   0  0  0  0  0  0  0  0  0  0  0  0
   23.1744   26.7380   39.5319 H   0  0  0  0  0  0  0  0  0  0  0  0
   21.7040   29.4590   38.4006 H   0  0  0  0  0  0  0  0  0  0  0  0
   21.8858   29.3241   36.6072 H   0  0  0  0  0  0  0  0  0  0  0  0
   23.2661   29.9129   37.6044 H   0  0  0  0  0  0  0  0  0  0  0  0
  1  2  1  0
  2  3  2  0
  2  4  1  0
  4  5  2  0
  5  6  1  0
  6  7  2  0
  7  8  1  0
  8  9  2  0
  9 10  1  0
 10 11  2  0
 11 12  1  0
 12 13  2  0
 13 14  1  0
  1 15  1  0
 15 16  2  0
 16 17  1  0
 17 18  2  0
 18 19  1  0
 19 20  2  0
 19 21  1  0
 21 22  1  0
 22 23  1  0
 23 24  2  0
 24 25  1  0
 25 26  1  0
 25 27  1  0
 13  4  1  0
 24 15  1  0
 12  7  1  0
 23 18  1  0
  1 28  1  0
  8 29  1  0
  9 30  1  0
 10 31  1  0
 11 32  1  0
 14 33  1  0
 14 34  1  0
 17 35  1  0
 21 36  1  0
 21 37  1  0
 22 38  1  0
 22 39  1  0
 26 40  1  0
 26 41  1  0
 26 42  1  0
 27 43  1  0
 27 44  1  0
 27 45  1  0
M  END
$$$$
