confid_0
     RDKit          3D

 46 49  0  0  0  0  0  0  0  0999 V2000
   24.4800   26.1000   36.1300 N   0  0  0  0  0  0  0  0  0  0  0  0
   25.2500   26.2500   34.9900 C   0  0  0  0  0  0  0  0  0  0  0  0
   24.7400   25.7600   33.9900 O   0  0  0  0  0  0  0  0  0  0  0  0
   26.5900   26.8900   34.9600 C   0  0  0  0  0  0  0  0  0  0  0  0
   27.0600   27.2400   36.1600 N   0  0  0  0  0  0  0  0  0  0  0  0
   28.3000   27.7100   36.2400 N   0  0  0  0  0  0  0  0  0  0  0  0
   29.0500   27.9600   35.1500 C   0  0  0  0  0  0  0  0  0  0  0  0
   30.3400   28.4900   35.2600 C   0  0  0  0  0  0  0  0  0  0  0  0
   31.1100   28.8200   34.1400 C   0  0  0  0  0  0  0  0  0  0  0  0
   30.5200   28.6700   32.8800 C   0  0  0  0  0  0  0  0  0  0  0  0
   29.2900   28.0200   32.7700 C   0  0  0  0  0  0  0  0  0  0  0  0
   28.5200   27.7100   33.8900 C   0  0  0  0  0  0  0  0  0  0  0  0
   27.2700   27.0800   33.7600 C   0  0  0  0  0  0  0  0  0  0  0  0
   26.7500   26.8800   32.4900 N   0  0  0  0  0  0  0  0  0  0  0  0
   23.0393   26.0108   36.1281 C   0  0  0  0  0  0  0  0  0  0  0  0
   22.3398   26.4507   35.0445 N   0  0  0  0  0  0  0  0  0  0  0  0
   20.9807   26.4498   34.9953 C   0  0  0  0  0  0  0  0  0  0  0  0
   20.2512   25.9986   36.0937 C   0  0  0  0  0  0  0  0  0  0  0  0
   20.9250   25.5464   37.2331 C   0  0  0  0  0  0  0  0  0  0  0  0
   20.1387   25.0303   38.4072 C   0  0  0  0  0  0  0  0  0  0  0  0
   21.0342   24.8966   39.6407 C   0  0  0  0  0  0  0  0  0  0  0  0
   22.2197   24.2057   39.3027 O   0  0  0  0  0  0  0  0  0  0  0  0
   23.0459   25.0261   38.4950 C   0  0  0  0  0  0  0  0  0  0  0  0
   22.3335   25.5181   37.2497 C   0  0  0  0  0  0  0  0  0  0  0  0
   20.3029   26.8975   33.8555 O   0  0  0  0  0  0  0  0  0  0  0  0
   20.9610   27.4020   32.6944 C   0  0  0  0  0  0  0  0  0  0  0  0
   21.4718   28.8182   32.9348 C   0  0  0  0  0  0  0  0  0  0  0  0
   24.9679   26.1515   37.0516 H   0  0  0  0  0  0  0  0  0  0  0  0
   30.7580   28.6629   36.2441 H   0  0  0  0  0  0  0  0  0  0  0  0
   32.0983   29.2479   34.2470 H   0  0  0  0  0  0  0  0  0  0  0  0
   31.0668   28.9543   31.9901 H   0  0  0  0  0  0  0  0  0  0  0  0
   28.9258   27.8587   31.7656 H   0  0  0  0  0  0  0  0  0  0  0  0
   27.2968   26.3787   31.7553 H   0  0  0  0  0  0  0  0  0  0  0  0
   25.7672   27.1505   32.2660 H   0  0  0  0  0  0  0  0  0  0  0  0
   19.1685   26.0004   36.0594 H   0  0  0  0  0  0  0  0  0  0  0  0
   19.2979   25.7199   38.6385 H   0  0  0  0  0  0  0  0  0  0  0  0
   19.7203   24.0340   38.1470 H   0  0  0  0  0  0  0  0  0  0  0  0
   21.2543   25.8979   40.0783 H   0  0  0  0  0  0  0  0  0  0  0  0
   20.4922   24.3145   40.4160 H   0  0  0  0  0  0  0  0  0  0  0  0
   23.4248   25.8927   39.0818 H   0  0  0  0  0  0  0  0  0  0  0  0
   23.9219   24.4143   38.1947 H   0  0  0  0  0  0  0  0  0  0  0  0
   21.7994   26.7329   32.4019 H   0  0  0  0  0  0  0  0  0  0  0  0
   20.2318   27.4235   31.8571 H   0  0  0  0  0  0  0  0  0  0  0  0
   22.2415   28.8246   33.7344 H   0  0  0  0  0  0  0  0  0  0  0  0
   21.9257   29.2139   32.0019 H   0  0  0  0  0  0  0  0  0  0  0  0
   20.6308   29.4785   33.2337 H   0  0  0  0  0  0  0  0  0  0  0  0
  1  2  1  0
  2  3  2  0
  2  4  1  0
  4  5  2  0
  5  6  1  0
  6  7  2  0
  7  8  1  0
  8  9  2  0
  9 10  1  0
 10 11  2  0
 11 12  1  0
 12 13  2  0
 13 14  1  0
  1 15  1  0
 15 16  2  0
 16 17  1  0
 17 18  2  0
 18 19  1  0
 19 20  1  0
 20 21  1  0
 21 22  1  0
 22 23  1  0
 23 24  1  0
 17 25  1  0
 25 26  1  0
 26 27  1  0
 13  4  1  0
 24 15  1  0
 12  7  1  0
 24 19  2  0
  1 28  1  0
  8 29  1  0
  9 30  1  0
 10 31  1  0
 11 32  1  0
 14 33  1  0
 14 34  1  0
 18 35  1  0
 20 36  1  0
 20 37  1  0
 21 38  1  0
 21 39  1  0
 23 40  1  0
 23 41  1  0
 26 42  1  0
 26 43  1  0
 27 44  1  0
 27 45  1  0
 27 46  1  0
M  END
$$$$
confid_1
     RDKit          3D

 46 49  0  0  0  0  0  0  0  0999 V2000
   24.4800   26.1000   36.1300 N   0  0  0  0  0  0  0  0  0  0  0  0
   25.2500   26.2500   34.9900 C   0  0  0  0  0  0  0  0  0  0  0  0
   24.7400   25.7600   33.9900 O   0  0  0  0  0  0  0  0  0  0  0  0
   26.5900   26.8900   34.9600 C   0  0  0  0  0  0  0  0  0  0  0  0
   27.0600   27.2400   36.1600 N   0  0  0  0  0  0  0  0  0  0  0  0
   28.3000   27.7100   36.2400 N   0  0  0  0  0  0  0  0  0  0  0  0
   29.0500   27.9600   35.1500 C   0  0  0  0  0  0  0  0  0  0  0  0
   30.3400   28.4900   35.2600 C   0  0  0  0  0  0  0  0  0  0  0  0
   31.1100   28.8200   34.1400 C   0  0  0  0  0  0  0  0  0  0  0  0
   30.5200   28.6700   32.8800 C   0  0  0  0  0  0  0  0  0  0  0  0
   29.2900   28.0200   32.7700 C   0  0  0  0  0  0  0  0  0  0  0  0
   28.5200   27.7100   33.8900 C   0  0  0  0  0  0  0  0  0  0  0  0
   27.2700   27.0800   33.7600 C   0  0  0  0  0  0  0  0  0  0  0  0
   26.7500   26.8800   32.4900 N   0  0  0  0  0  0  0  0  0  0  0  0
   23.0426   25.9748   36.1260 C   0  0  0  0  0  0  0  0  0  0  0  0
   22.3292   26.4544   35.0693 N   0  0  0  0  0  0  0  0  0  0  0  0
   20.9703   26.4150   35.0223 C   0  0  0  0  0  0  0  0  0  0  0  0
   20.2566   25.8844   36.0955 C   0  0  0  0  0  0  0  0  0  0  0  0
   20.9462   25.3945   37.2095 C   0  0  0  0  0  0  0  0  0  0  0  0
   20.1796   24.7910   38.3541 C   0  0  0  0  0  0  0  0  0  0  0  0
   21.0820   24.6181   39.5777 C   0  0  0  0  0  0  0  0  0  0  0  0
   22.2882   23.9847   39.2023 O   0  0  0  0  0  0  0  0  0  0  0  0
   23.0853   24.8735   38.4392 C   0  0  0  0  0  0  0  0  0  0  0  0
   22.3545   25.4055   37.2215 C   0  0  0  0  0  0  0  0  0  0  0  0
   20.2788   26.9032   33.9100 O   0  0  0  0  0  0  0  0  0  0  0  0
   20.9398   27.4416   32.7695 C   0  0  0  0  0  0  0  0  0  0  0  0
   19.9087   27.8783   31.7415 C   0  0  0  0  0  0  0  0  0  0  0  0
   24.9652   26.1538   37.0527 H   0  0  0  0  0  0  0  0  0  0  0  0
   30.7583   28.6623   36.2440 H   0  0  0  0  0  0  0  0  0  0  0  0
   32.0994   29.2455   34.2468 H   0  0  0  0  0  0  0  0  0  0  0  0
   31.0715   28.9442   31.9898 H   0  0  0  0  0  0  0  0  0  0  0  0
   28.9438   27.8130   31.7669 H   0  0  0  0  0  0  0  0  0  0  0  0
   26.7157   27.6566   31.7925 H   0  0  0  0  0  0  0  0  0  0  0  0
   26.3603   25.9534   32.2113 H   0  0  0  0  0  0  0  0  0  0  0  0
   19.1742   25.8535   36.0610 H   0  0  0  0  0  0  0  0  0  0  0  0
   19.7919   23.7976   38.0409 H   0  0  0  0  0  0  0  0  0  0  0  0
   19.3183   25.4397   38.6234 H   0  0  0  0  0  0  0  0  0  0  0  0
   20.5608   23.9782   40.3206 H   0  0  0  0  0  0  0  0  0  0  0  0
   21.2712   25.6016   40.0680 H   0  0  0  0  0  0  0  0  0  0  0  0
   23.9816   24.3088   38.1081 H   0  0  0  0  0  0  0  0  0  0  0  0
   23.4358   25.7201   39.0705 H   0  0  0  0  0  0  0  0  0  0  0  0
   21.6018   26.6697   32.3207 H   0  0  0  0  0  0  0  0  0  0  0  0
   21.5536   28.3180   33.0704 H   0  0  0  0  0  0  0  0  0  0  0  0
   19.2834   27.0113   31.4402 H   0  0  0  0  0  0  0  0  0  0  0  0
   19.2565   28.6672   32.1712 H   0  0  0  0  0  0  0  0  0  0  0  0
   20.4219   28.2814   30.8437 H   0  0  0  0  0  0  0  0  0  0  0  0
  1  2  1  0
  2  3  2  0
  2  4  1  0
  4  5  2  0
  5  6  1  0
  6  7  2  0
  7  8  1  0
  8  9  2  0
  9 10  1  0
 10 11  2  0
 11 12  1  0
 12 13  2  0
 13 14  1  0
  1 15  1  0
 15 16  2  0
 16 17  1  0
 17 18  2  0
 18 19  1  0
 19 20  1  0
 20 21  1  0
 21 22  1  0
 22 23  1  0
 23 24  1  0
 17 25  1  0
 25 26  1  0
 26 27  1  0
 13  4  1  0
 24 15  1  0
 12  7  1  0
 24 19  2  0
  1 28  1  0
  8 29  1  0
  9 30  1  0
 10 31  1  0
 11 32  1  0
 14 33  1  0
 14 34  1  0
 18 35  1  0
 20 36  1  0
 20 37  1  0
 21 38  1  0
 21 39  1  0
 23 40  1  0
 23 41  1  0
 26 42  1  0
 26 43  1  0
 27 44  1  0
 27 45  1  0
 27 46  1  0
M  END
$$$$
confid_2
     RDKit          3D

 46 49  0  0  0  0  0  0  0  0999 V2000
   24.4800   26.1000   36.1300 N   0  0  0  0  0  0  0  0  0  0  0  0
   25.2500   26.2500   34.9900 C   0  0  0  0  0  0  0  0  0  0  0  0
   24.7400   25.7600   33.9900 O   0  0  0  0  0  0  0  0  0  0  0  0
   26.5900   26.8900   34.9600 C   0  0  0  0  0  0  0  0  0  0  0  0
   27.0600   27.2400   36.1600 N   0  0  0  0  0  0  0  0  0  0  0  0
   28.3000   27.7100   36.2400 N   0  0  0  0  0  0  0  0  0  0  0  0
   29.0500   27.9600   35.1500 C   0  0  0  0  0  0  0  0  0  0  0  0
   30.3400   28.4900   35.2600 C   0  0  0  0  0  0  0  0  0  0  0  0
   31.1100   28.8200   34.1400 C   0  0  0  0  0  0  0  0  0  0  0  0
   30.5200   28.6700   32.8800 C   0  0  0  0  0  0  0  0  0  0  0  0
   29.2900   28.0200   32.7700 C   0  0  0  0  0  0  0  0  0  0  0  0
   28.5200   27.7100   33.8900 C   0  0  0  0  0  0  0  0  0  0  0  0
   27.2700   27.0800   33.7600 C   0  0  0  0  0  0  0  0  0  0  0  0
   26.7500   26.8800   32.4900 N   0  0  0  0  0  0  0  0  0  0  0  0
   23.4747   25.0803   36.3144 C   0  0  0  0  0  0  0  0  0  0  0  0
   23.5297   23.9381   35.5734 N   0  0  0  0  0  0  0  0  0  0  0  0
   22.6449   22.9170   35.7301 C   0  0  0  0  0  0  0  0  0  0  0  0
   21.6458   23.0109   36.6969 C   0  0  0  0  0  0  0  0  0  0  0  0
   21.5603   24.1573   37.4939 C   0  0  0  0  0  0  0  0  0  0  0  0
   20.4632   24.2731   38.5170 C   0  0  0  0  0  0  0  0  0  0  0  0
   20.7360   25.4360   39.4734 C   0  0  0  0  0  0  0  0  0  0  0  0
   21.0612   26.5976   38.7377 O   0  0  0  0  0  0  0  0  0  0  0  0
   22.3465   26.4598   38.1573 C   0  0  0  0  0  0  0  0  0  0  0  0
   22.4584   25.2227   37.2873 C   0  0  0  0  0  0  0  0  0  0  0  0
   22.7261   21.7710   34.9337 O   0  0  0  0  0  0  0  0  0  0  0  0
   23.7162   21.6044   33.9232 C   0  0  0  0  0  0  0  0  0  0  0  0
   23.5051   20.2735   33.2185 C   0  0  0  0  0  0  0  0  0  0  0  0
   24.6874   26.7352   36.9318 H   0  0  0  0  0  0  0  0  0  0  0  0
   30.7580   28.6629   36.2441 H   0  0  0  0  0  0  0  0  0  0  0  0
   32.0983   29.2480   34.2470 H   0  0  0  0  0  0  0  0  0  0  0  0
   31.0669   28.9541   31.9901 H   0  0  0  0  0  0  0  0  0  0  0  0
   28.9259   27.8585   31.7656 H   0  0  0  0  0  0  0  0  0  0  0  0
   25.7672   27.1502   32.2658 H   0  0  0  0  0  0  0  0  0  0  0  0
   27.2968   26.3784   31.7555 H   0  0  0  0  0  0  0  0  0  0  0  0
   20.9418   22.1969   36.8254 H   0  0  0  0  0  0  0  0  0  0  0  0
   20.3814   23.3304   39.1003 H   0  0  0  0  0  0  0  0  0  0  0  0
   19.5003   24.4496   37.9902 H   0  0  0  0  0  0  0  0  0  0  0  0
   19.8180   25.6356   40.0656 H   0  0  0  0  0  0  0  0  0  0  0  0
   21.5416   25.1702   40.1966 H   0  0  0  0  0  0  0  0  0  0  0  0
   22.5224   27.3602   37.5327 H   0  0  0  0  0  0  0  0  0  0  0  0
   23.1295   26.4403   38.9478 H   0  0  0  0  0  0  0  0  0  0  0  0
   24.7285   21.6212   34.3831 H   0  0  0  0  0  0  0  0  0  0  0  0
   23.6380   22.4292   33.1807 H   0  0  0  0  0  0  0  0  0  0  0  0
   23.5849   19.4403   33.9494 H   0  0  0  0  0  0  0  0  0  0  0  0
   24.2770   20.1393   32.4315 H   0  0  0  0  0  0  0  0  0  0  0  0
   22.4993   20.2501   32.7468 H   0  0  0  0  0  0  0  0  0  0  0  0
  1  2  1  0
  2  3  2  0
  2  4  1  0
  4  5  2  0
  5  6  1  0
  6  7  2  0
  7  8  1  0
  8  9  2  0
  9 10  1  0
 10 11  2  0
 11 12  1  0
 12 13  2  0
 13 14  1  0
  1 15  1  0
 15 16  2  0
 16 17  1  0
 17 18  2  0
 18 19  1  0
 19 20  1  0
 20 21  1  0
 21 22  1  0
 22 23  1  0
 23 24  1  0
 17 25  1  0
 25 26  1  0
 26 27  1  0
 13  4  1  0
 24 15  1  0
 12  7  1  0
 24 19  2  0
  1 28  1  0
  8 29  1  0
  9 30  1  0
 10 31  1  0
 11 32  1  0
 14 33  1  0
 14 34  1  0
 18 35  1  0
 20 36  1  0
 20 37  1  0
 21 38  1  0
 21 39  1  0
 23 40  1  0
 23 41  1  0
 26 42  1  0
 26 43  1  0
 27 44  1  0
 27 45  1  0
 27 46  1  0
M  END
$$$$
confid_3
     RDKit          3D

 46 49  0  0  0  0  0  0  0  0999 V2000
   24.4800   26.1000   36.1300 N   0  0  0  0  0  0  0  0  0  0  0  0
   25.2500   26.2500   34.9900 C   0  0  0  0  0  0  0  0  0  0  0  0
   24.7400   25.7600   33.9900 O   0  0  0  0  0  0  0  0  0  0  0  0
   26.5900   26.8900   34.9600 C   0  0  0  0  0  0  0  0  0  0  0  0
   27.0600   27.2400   36.1600 N   0  0  0  0  0  0  0  0  0  0  0  0
   28.3000   27.7100   36.2400 N   0  0  0  0  0  0  0  0  0  0  0  0
   29.0500   27.9600   35.1500 C   0  0  0  0  0  0  0  0  0  0  0  0
   30.3400   28.4900   35.2600 C   0  0  0  0  0  0  0  0  0  0  0  0
   31.1100   28.8200   34.1400 C   0  0  0  0  0  0  0  0  0  0  0  0
   30.5200   28.6700   32.8800 C   0  0  0  0  0  0  0  0  0  0  0  0
   29.2900   28.0200   32.7700 C   0  0  0  0  0  0  0  0  0  0  0  0
   28.5200   27.7100   33.8900 C   0  0  0  0  0  0  0  0  0  0  0  0
   27.2700   27.0800   33.7600 C   0  0  0  0  0  0  0  0  0  0  0  0
   26.7500   26.8800   32.4900 N   0  0  0  0  0  0  0  0  0  0  0  0
   23.0398   26.0177   36.1243 C   0  0  0  0  0  0  0  0  0  0  0  0
   22.3426   26.5248   35.0695 N   0  0  0  0  0  0  0  0  0  0  0  0
   20.9835   26.5261   35.0193 C   0  0  0  0  0  0  0  0  0  0  0  0
   20.2528   26.0126   36.0895 C   0  0  0  0  0  0  0  0  0  0  0  0
   20.9256   25.4959   37.2020 C   0  0  0  0  0  0  0  0  0  0  0  0
   20.1391   24.9150   38.3453 C   0  0  0  0  0  0  0  0  0  0  0  0
   21.0356   24.7023   39.5669 C   0  0  0  0  0  0  0  0  0  0  0  0
   22.2192   24.0313   39.1854 O   0  0  0  0  0  0  0  0  0  0  0  0
   23.0459   24.8988   38.4291 C   0  0  0  0  0  0  0  0  0  0  0  0
   22.3335   25.4637   37.2158 C   0  0  0  0  0  0  0  0  0  0  0  0
   20.3064   27.0459   33.9103 O   0  0  0  0  0  0  0  0  0  0  0  0
   20.9654   27.5514   32.7503 C   0  0  0  0  0  0  0  0  0  0  0  0
   21.4860   26.4094   31.8848 C   0  0  0  0  0  0  0  0  0  0  0  0
   24.9678   26.1309   37.0524 H   0  0  0  0  0  0  0  0  0  0  0  0
   30.7580   28.6629   36.2441 H   0  0  0  0  0  0  0  0  0  0  0  0
   32.0983   29.2479   34.2470 H   0  0  0  0  0  0  0  0  0  0  0  0
   31.0669   28.9543   31.9901 H   0  0  0  0  0  0  0  0  0  0  0  0
   28.9258   27.8587   31.7655 H   0  0  0  0  0  0  0  0  0  0  0  0
   27.2970   26.3791   31.7552 H   0  0  0  0  0  0  0  0  0  0  0  0
   25.7667   27.1488   32.2663 H   0  0  0  0  0  0  0  0  0  0  0  0
   19.1702   26.0170   36.0549 H   0  0  0  0  0  0  0  0  0  0  0  0
   19.7143   23.9386   38.0272 H   0  0  0  0  0  0  0  0  0  0  0  0
   19.3026   25.5938   38.6192 H   0  0  0  0  0  0  0  0  0  0  0  0
   21.2587   25.6744   40.0654 H   0  0  0  0  0  0  0  0  0  0  0  0
   20.4930   24.0749   40.3051 H   0  0  0  0  0  0  0  0  0  0  0  0
   23.9231   24.3072   38.0933 H   0  0  0  0  0  0  0  0  0  0  0  0
   23.4242   25.7287   39.0667 H   0  0  0  0  0  0  0  0  0  0  0  0
   21.7989   28.2275   33.0406 H   0  0  0  0  0  0  0  0  0  0  0  0
   20.2350   28.1420   32.1585 H   0  0  0  0  0  0  0  0  0  0  0  0
   20.6483   25.7383   31.6003 H   0  0  0  0  0  0  0  0  0  0  0  0
   22.2518   25.8230   32.4334 H   0  0  0  0  0  0  0  0  0  0  0  0
   21.9469   26.8208   30.9623 H   0  0  0  0  0  0  0  0  0  0  0  0
  1  2  1  0
  2  3  2  0
  2  4  1  0
  4  5  2  0
  5  6  1  0
  6  7  2  0
  7  8  1  0
  8  9  2  0
  9 10  1  0
 10 11  2  0
 11 12  1  0
 12 13  2  0
 13 14  1  0
  1 15  1  0
 15 16  2  0
 16 17  1  0
 17 18  2  0
 18 19  1  0
 19 20  1  0
 20 21  1  0
 21 22  1  0
 22 23  1  0
 23 24  1  0
 17 25  1  0
 25 26  1  0
 26 27  1  0
 13  4  1  0
 24 15  1  0
 12  7  1  0
 24 19  2  0
  1 28  1  0
  8 29  1  0
  9 30  1  0
 10 31  1  0
 11 32  1  0
 14 33  1  0
 14 34  1  0
 18 35  1  0
 20 36  1  0
 20 37  1  0
 21 38  1  0
 21 39  1  0
 23 40  1  0
 23 41  1  0
 26 42  1  0
 26 43  1  0
 27 44  1  0
 27 45  1  0
 27 46  1  0
M  END
$$$$
confid_4
     RDKit          3D

 46 49  0  0  0  0  0  0  0  0999 V2000
   24.4800   26.1000   36.1300 N   0  0  0  0  0  0  0  0  0  0  0  0
   25.2500   26.2500   34.9900 C   0  0  0  0  0  0  0  0  0  0  0  0
   24.7400   25.7600   33.9900 O   0  0  0  0  0  0  0  0  0  0  0  0
   26.5900   26.8900   34.9600 C   0  0  0  0  0  0  0  0  0  0  0  0
   27.0600   27.2400   36.1600 N   0  0  0  0  0  0  0  0  0  0  0  0
   28.3000   27.7100   36.2400 N   0  0  0  0  0  0  0  0  0  0  0  0
   29.0500   27.9600   35.1500 C   0  0  0  0  0  0  0  0  0  0  0  0
   30.3400   28.4900   35.2600 C   0  0  0  0  0  0  0  0  0  0  0  0
   31.1100   28.8200   34.1400 C   0  0  0  0  0  0  0  0  0  0  0  0
   30.5200   28.6700   32.8800 C   0  0  0  0  0  0  0  0  0  0  0  0
   29.2900   28.0200   32.7700 C   0  0  0  0  0  0  0  0  0  0  0  0
   28.5200   27.7100   33.8900 C   0  0  0  0  0  0  0  0  0  0  0  0
   27.2700   27.0800   33.7600 C   0  0  0  0  0  0  0  0  0  0  0  0
   26.7500   26.8800   32.4900 N   0  0  0  0  0  0  0  0  0  0  0  0
   23.5318   25.0321   36.3381 C   0  0  0  0  0  0  0  0  0  0  0  0
   23.6465   23.8817   35.6177 N   0  0  0  0  0  0  0  0  0  0  0  0
   22.8260   22.8129   35.8026 C   0  0  0  0  0  0  0  0  0  0  0  0
   21.8285   22.8687   36.7744 C   0  0  0  0  0  0  0  0  0  0  0  0
   21.6818   24.0239   37.5494 C   0  0  0  0  0  0  0  0  0  0  0  0
   20.5894   24.0952   38.5813 C   0  0  0  0  0  0  0  0  0  0  0  0
   20.8036   25.2884   39.5150 C   0  0  0  0  0  0  0  0  0  0  0  0
   21.0574   26.4537   38.7573 O   0  0  0  0  0  0  0  0  0  0  0  0
   22.3431   26.3777   38.1668 C   0  0  0  0  0  0  0  0  0  0  0  0
   22.5159   25.1347   37.3157 C   0  0  0  0  0  0  0  0  0  0  0  0
   22.9707   21.6543   35.0310 O   0  0  0  0  0  0  0  0  0  0  0  0
   23.9865   21.4869   34.0432 C   0  0  0  0  0  0  0  0  0  0  0  0
   25.3373   21.2193   34.6972 C   0  0  0  0  0  0  0  0  0  0  0  0
   24.6590   26.7620   36.9171 H   0  0  0  0  0  0  0  0  0  0  0  0
   30.7580   28.6629   36.2441 H   0  0  0  0  0  0  0  0  0  0  0  0
   32.0983   29.2480   34.2470 H   0  0  0  0  0  0  0  0  0  0  0  0
   31.0669   28.9543   31.9901 H   0  0  0  0  0  0  0  0  0  0  0  0
   28.9258   27.8586   31.7656 H   0  0  0  0  0  0  0  0  0  0  0  0
   25.7672   27.1499   32.2659 H   0  0  0  0  0  0  0  0  0  0  0  0
   27.2968   26.3784   31.7555 H   0  0  0  0  0  0  0  0  0  0  0  0
   21.1749   22.0181   36.9257 H   0  0  0  0  0  0  0  0  0  0  0  0
   19.6136   24.2065   38.0613 H   0  0  0  0  0  0  0  0  0  0  0  0
   20.5671   23.1599   39.1816 H   0  0  0  0  0  0  0  0  0  0  0  0
   21.6286   25.0813   40.2357 H   0  0  0  0  0  0  0  0  0  0  0  0
   19.8812   25.4463   40.1127 H   0  0  0  0  0  0  0  0  0  0  0  0
   23.1330   26.4133   38.9499 H   0  0  0  0  0  0  0  0  0  0  0  0
   22.4641   27.2767   37.5268 H   0  0  0  0  0  0  0  0  0  0  0  0
   24.0443   22.3845   33.3898 H   0  0  0  0  0  0  0  0  0  0  0  0
   23.7204   20.6160   33.4081 H   0  0  0  0  0  0  0  0  0  0  0  0
   26.0997   21.0265   33.9133 H   0  0  0  0  0  0  0  0  0  0  0  0
   25.6597   22.0951   35.2976 H   0  0  0  0  0  0  0  0  0  0  0  0
   25.2683   20.3299   35.3585 H   0  0  0  0  0  0  0  0  0  0  0  0
  1  2  1  0
  2  3  2  0
  2  4  1  0
  4  5  2  0
  5  6  1  0
  6  7  2  0
  7  8  1  0
  8  9  2  0
  9 10  1  0
 10 11  2  0
 11 12  1  0
 12 13  2  0
 13 14  1  0
  1 15  1  0
 15 16  2  0
 16 17  1  0
 17 18  2  0
 18 19  1  0
 19 20  1  0
 20 21  1  0
 21 22  1  0
 22 23  1  0
 23 24  1  0
 17 25  1  0
 25 26  1  0
 26 27  1  0
 13  4  1  0
 24 15  1  0
 12  7  1  0
 24 19  2  0
  1 28  1  0
  8 29  1  0
  9 30  1  0
 10 31  1  0
 11 32  1  0
 14 33  1  0
 14 34  1  0
 18 35  1  0
 20 36  1  0
 20 37  1  0
 21 38  1  0
 21 39  1  0
 23 40  1  0
 23 41  1  0
 26 42  1  0
 26 43  1  0
 27 44  1  0
 27 45  1  0
 27 46  1  0
M  END
$$$$
confid_5
     RDKit          3D

 46 49  0  0  0  0  0  0  0  0999 V2000
   24.4800   26.1000   36.1300 N   0  0  0  0  0  0  0  0  0  0  0  0
   25.2500   26.2500   34.9900 C   0  0  0  0  0  0  0  0  0  0  0  0
   24.7400   25.7600   33.9900 O   0  0  0  0  0  0  0  0  0  0  0  0
   26.5900   26.8900   34.9600 C   0  0  0  0  0  0  0  0  0  0  0  0
   27.0600   27.2400   36.1600 N   0  0  0  0  0  0  0  0  0  0  0  0
   28.3000   27.7100   36.2400 N   0  0  0  0  0  0  0  0  0  0  0  0
   29.0500   27.9600   35.1500 C   0  0  0  0  0  0  0  0  0  0  0  0
   30.3400   28.4900   35.2600 C   0  0  0  0  0  0  0  0  0  0  0  0
   31.1100   28.8200   34.1400 C   0  0  0  0  0  0  0  0  0  0  0  0
   30.5200   28.6700   32.8800 C   0  0  0  0  0  0  0  0  0  0  0  0
   29.2900   28.0200   32.7700 C   0  0  0  0  0  0  0  0  0  0  0  0
   28.5200   27.7100   33.8900 C   0  0  0  0  0  0  0  0  0  0  0  0
   27.2700   27.0800   33.7600 C   0  0  0  0  0  0  0  0  0  0  0  0
   26.7500   26.8800   32.4900 N   0  0  0  0  0  0  0  0  0  0  0  0
   23.0344   26.1136   36.1398 C   0  0  0  0  0  0  0  0  0  0  0  0
   22.3625   26.5009   35.0191 N   0  0  0  0  0  0  0  0  0  0  0  0
   21.0056   26.5158   34.9394 C   0  0  0  0  0  0  0  0  0  0  0  0
   20.2459   26.1071   36.0322 C   0  0  0  0  0  0  0  0  0  0  0  0
   20.8877   25.6944   37.2042 C   0  0  0  0  0  0  0  0  0  0  0  0
   20.0649   25.2487   38.3812 C   0  0  0  0  0  0  0  0  0  0  0  0
   20.9387   24.5051   39.3903 C   0  0  0  0  0  0  0  0  0  0  0  0
   22.0829   25.2768   39.6865 O   0  0  0  0  0  0  0  0  0  0  0  0
   22.9664   25.2916   38.5780 C   0  0  0  0  0  0  0  0  0  0  0  0
   22.2946   25.7417   37.2908 C   0  0  0  0  0  0  0  0  0  0  0  0
   20.3626   26.9295   33.7694 O   0  0  0  0  0  0  0  0  0  0  0  0
   21.0729   27.3414   32.6055 C   0  0  0  0  0  0  0  0  0  0  0  0
   20.0863   27.7378   31.5195 C   0  0  0  0  0  0  0  0  0  0  0  0
   24.9961   26.0268   37.0320 H   0  0  0  0  0  0  0  0  0  0  0  0
   30.7580   28.6628   36.2441 H   0  0  0  0  0  0  0  0  0  0  0  0
   32.0983   29.2480   34.2470 H   0  0  0  0  0  0  0  0  0  0  0  0
   31.0668   28.9543   31.9901 H   0  0  0  0  0  0  0  0  0  0  0  0
   28.9258   27.8587   31.7656 H   0  0  0  0  0  0  0  0  0  0  0  0
   25.7669   27.1496   32.2661 H   0  0  0  0  0  0  0  0  0  0  0  0
   27.2969   26.3788   31.7553 H   0  0  0  0  0  0  0  0  0  0  0  0
   19.1646   26.1048   35.9665 H   0  0  0  0  0  0  0  0  0  0  0  0
   19.2438   24.5786   38.0454 H   0  0  0  0  0  0  0  0  0  0  0  0
   19.6188   26.1432   38.8673 H   0  0  0  0  0  0  0  0  0  0  0  0
   21.2137   23.4948   39.0066 H   0  0  0  0  0  0  0  0  0  0  0  0
   20.3590   24.3544   40.3254 H   0  0  0  0  0  0  0  0  0  0  0  0
   23.4244   24.2879   38.4352 H   0  0  0  0  0  0  0  0  0  0  0  0
   23.7770   26.0022   38.8357 H   0  0  0  0  0  0  0  0  0  0  0  0
   21.7075   26.5060   32.2378 H   0  0  0  0  0  0  0  0  0  0  0  0
   21.7203   28.2121   32.8484 H   0  0  0  0  0  0  0  0  0  0  0  0
   19.4542   28.5803   31.8715 H   0  0  0  0  0  0  0  0  0  0  0  0
   19.4356   26.8748   31.2643 H   0  0  0  0  0  0  0  0  0  0  0  0
   20.6377   28.0556   30.6094 H   0  0  0  0  0  0  0  0  0  0  0  0
  1  2  1  0
  2  3  2  0
  2  4  1  0
  4  5  2  0
  5  6  1  0
  6  7  2  0
  7  8  1  0
  8  9  2  0
  9 10  1  0
 10 11  2  0
 11 12  1  0
 12 13  2  0
 13 14  1  0
  1 15  1  0
 15 16  2  0
 16 17  1  0
 17 18  2  0
 18 19  1  0
 19 20  1  0
 20 21  1  0
 21 22  1  0
 22 23  1  0
 23 24  1  0
 17 25  1  0
 25 26  1  0
 26 27  1  0
 13  4  1  0
 24 15  1  0
 12  7  1  0
 24 19  2  0
  1 28  1  0
  8 29  1  0
  9 30  1  0
 10 31  1  0
 11 32  1  0
 14 33  1  0
 14 34  1  0
 18 35  1  0
 20 36  1  0
 20 37  1  0
 21 38  1  0
 21 39  1  0
 23 40  1  0
 23 41  1  0
 26 42  1  0
 26 43  1  0
 27 44  1  0
 27 45  1  0
 27 46  1  0
M  END
$$$$
confid_6
     RDKit          3D

 46 49  0  0  0  0  0  0  0  0999 V2000
   24.4800   26.1000   36.1300 N   0  0  0  0  0  0  0  0  0  0  0  0
   25.2500   26.2500   34.9900 C   0  0  0  0  0  0  0  0  0  0  0  0
   24.7400   25.7600   33.9900 O   0  0  0  0  0  0  0  0  0  0  0  0
   26.5900   26.8900   34.9600 C   0  0  0  0  0  0  0  0  0  0  0  0
   27.0600   27.2400   36.1600 N   0  0  0  0  0  0  0  0  0  0  0  0
   28.3000   27.7100   36.2400 N   0  0  0  0  0  0  0  0  0  0  0  0
   29.0500   27.9600   35.1500 C   0  0  0  0  0  0  0  0  0  0  0  0
   30.3400   28.4900   35.2600 C   0  0  0  0  0  0  0  0  0  0  0  0
   31.1100   28.8200   34.1400 C   0  0  0  0  0  0  0  0  0  0  0  0
   30.5200   28.6700   32.8800 C   0  0  0  0  0  0  0  0  0  0  0  0
   29.2900   28.0200   32.7700 C   0  0  0  0  0  0  0  0  0  0  0  0
   28.5200   27.7100   33.8900 C   0  0  0  0  0  0  0  0  0  0  0  0
   27.2700   27.0800   33.7600 C   0  0  0  0  0  0  0  0  0  0  0  0
   26.7500   26.8800   32.4900 N   0  0  0  0  0  0  0  0  0  0  0  0
   23.5036   25.0553   36.3288 C   0  0  0  0  0  0  0  0  0  0  0  0
   23.5797   23.9126   35.5902 N   0  0  0  0  0  0  0  0  0  0  0  0
   22.7257   22.8678   35.7613 C   0  0  0  0  0  0  0  0  0  0  0  0
   21.7376   22.9378   36.7415 C   0  0  0  0  0  0  0  0  0  0  0  0
   21.6330   24.0831   37.5381 C   0  0  0  0  0  0  0  0  0  0  0  0
   20.5548   24.1684   38.5839 C   0  0  0  0  0  0  0  0  0  0  0  0
   20.8215   25.3324   39.5408 C   0  0  0  0  0  0  0  0  0  0  0  0
   21.0961   26.5055   38.8035 O   0  0  0  0  0  0  0  0  0  0  0  0
   22.3696   26.4056   38.1898 C   0  0  0  0  0  0  0  0  0  0  0  0
   22.4982   25.1723   37.3161 C   0  0  0  0  0  0  0  0  0  0  0  0
   22.8324   21.7155   34.9740 O   0  0  0  0  0  0  0  0  0  0  0  0
   23.7816   21.5655   33.9197 C   0  0  0  0  0  0  0  0  0  0  0  0
   23.3460   22.3495   32.6868 C   0  0  0  0  0  0  0  0  0  0  0  0
   24.6742   26.7498   36.9235 H   0  0  0  0  0  0  0  0  0  0  0  0
   30.7580   28.6628   36.2441 H   0  0  0  0  0  0  0  0  0  0  0  0
   32.0983   29.2479   34.2470 H   0  0  0  0  0  0  0  0  0  0  0  0
   31.0669   28.9543   31.9900 H   0  0  0  0  0  0  0  0  0  0  0  0
   28.9258   27.8587   31.7656 H   0  0  0  0  0  0  0  0  0  0  0  0
   27.2967   26.3783   31.7556 H   0  0  0  0  0  0  0  0  0  0  0  0
   25.7671   27.1496   32.2659 H   0  0  0  0  0  0  0  0  0  0  0  0
   21.0600   22.1046   36.8844 H   0  0  0  0  0  0  0  0  0  0  0  0
   19.5777   24.3256   38.0779 H   0  0  0  0  0  0  0  0  0  0  0  0
   20.5067   23.2208   39.1633 H   0  0  0  0  0  0  0  0  0  0  0  0
   19.9150   25.5042   40.1589 H   0  0  0  0  0  0  0  0  0  0  0  0
   21.6526   25.0847   40.2416 H   0  0  0  0  0  0  0  0  0  0  0  0
   22.5037   27.3114   37.5623 H   0  0  0  0  0  0  0  0  0  0  0  0
   23.1724   26.4078   38.9608 H   0  0  0  0  0  0  0  0  0  0  0  0
   23.8450   20.4896   33.6525 H   0  0  0  0  0  0  0  0  0  0  0  0
   24.7895   21.8966   34.2535 H   0  0  0  0  0  0  0  0  0  0  0  0
   24.0686   22.1783   31.8613 H   0  0  0  0  0  0  0  0  0  0  0  0
   23.3092   23.4360   32.9091 H   0  0  0  0  0  0  0  0  0  0  0  0
   22.3399   22.0117   32.3594 H   0  0  0  0  0  0  0  0  0  0  0  0
  1  2  1  0
  2  3  2  0
  2  4  1  0
  4  5  2  0
  5  6  1  0
  6  7  2  0
  7  8  1  0
  8  9  2  0
  9 10  1  0
 10 11  2  0
 11 12  1  0
 12 13  2  0
 13 14  1  0
  1 15  1  0
 15 16  2  0
 16 17  1  0
 17 18  2  0
 18 19  1  0
 19 20  1  0
 20 21  1  0
 21 22  1  0
 22 23  1  0
 23 24  1  0
 17 25  1  0
 25 26  1  0
 26 27  1  0
 13  4  1  0
 24 15  1  0
 12  7  1  0
 24 19  2  0
  1 28  1  0
  8 29  1  0
  9 30  1  0
 10 31  1  0
 11 32  1  0
 14 33  1  0
 14 34  1  0
 18 35  1  0
 20 36  1  0
 20 37  1  0
 21 38  1  0
 21 39  1  0
 23 40  1  0
 23 41  1  0
 26 42  1  0
 26 43  1  0
 27 44  1  0
 27 45  1  0
 27 46  1  0
M  END
$$$$
confid_7
     RDKit          3D

 46 49  0  0  0  0  0  0  0  0999 V2000
   24.4800   26.1000   36.1300 N   0  0  0  0  0  0  0  0  0  0  0  0
   25.2500   26.2500   34.9900 C   0  0  0  0  0  0  0  0  0  0  0  0
   24.7400   25.7600   33.9900 O   0  0  0  0  0  0  0  0  0  0  0  0
   26.5900   26.8900   34.9600 C   0  0  0  0  0  0  0  0  0  0  0  0
   27.0600   27.2400   36.1600 N   0  0  0  0  0  0  0  0  0  0  0  0
   28.3000   27.7100   36.2400 N   0  0  0  0  0  0  0  0  0  0  0  0
   29.0500   27.9600   35.1500 C   0  0  0  0  0  0  0  0  0  0  0  0
   30.3400   28.4900   35.2600 C   0  0  0  0  0  0  0  0  0  0  0  0
   31.1100   28.8200   34.1400 C   0  0  0  0  0  0  0  0  0  0  0  0
   30.5200   28.6700   32.8800 C   0  0  0  0  0  0  0  0  0  0  0  0
   29.2900   28.0200   32.7700 C   0  0  0  0  0  0  0  0  0  0  0  0
   28.5200   27.7100   33.8900 C   0  0  0  0  0  0  0  0  0  0  0  0
   27.2700   27.0800   33.7600 C   0  0  0  0  0  0  0  0  0  0  0  0
   26.7500   26.8800   32.4900 N   0  0  0  0  0  0  0  0  0  0  0  0
   23.0649   25.8137   36.1369 C   0  0  0  0  0  0  0  0  0  0  0  0
   22.3028   26.1509   35.0588 N   0  0  0  0  0  0  0  0  0  0  0  0
   20.9584   25.9460   35.0163 C   0  0  0  0  0  0  0  0  0  0  0  0
   20.3089   25.3881   36.1161 C   0  0  0  0  0  0  0  0  0  0  0  0
   21.0469   25.0440   37.2533 C   0  0  0  0  0  0  0  0  0  0  0  0
   20.3509   24.4218   38.4336 C   0  0  0  0  0  0  0  0  0  0  0  0
   21.2632   24.4244   39.6620 C   0  0  0  0  0  0  0  0  0  0  0  0
   22.5350   23.9137   39.3176 O   0  0  0  0  0  0  0  0  0  0  0  0
   23.2275   24.8456   38.5047 C   0  0  0  0  0  0  0  0  0  0  0  0
   22.4441   25.2243   37.2625 C   0  0  0  0  0  0  0  0  0  0  0  0
   20.2178   26.2921   33.8826 O   0  0  0  0  0  0  0  0  0  0  0  0
   20.8046   26.8976   32.7350 C   0  0  0  0  0  0  0  0  0  0  0  0
   19.7381   27.1185   31.6744 C   0  0  0  0  0  0  0  0  0  0  0  0
   24.9477   26.2503   37.0510 H   0  0  0  0  0  0  0  0  0  0  0  0
   30.7583   28.6623   36.2441 H   0  0  0  0  0  0  0  0  0  0  0  0
   32.0994   29.2455   34.2469 H   0  0  0  0  0  0  0  0  0  0  0  0
   31.0715   28.9444   31.9899 H   0  0  0  0  0  0  0  0  0  0  0  0
   28.9436   27.8130   31.7669 H   0  0  0  0  0  0  0  0  0  0  0  0
   26.3607   25.9532   32.2111 H   0  0  0  0  0  0  0  0  0  0  0  0
   26.7153   27.6568   31.7928 H   0  0  0  0  0  0  0  0  0  0  0  0
   19.2379   25.2284   36.0860 H   0  0  0  0  0  0  0  0  0  0  0  0
   20.0819   23.3741   38.1791 H   0  0  0  0  0  0  0  0  0  0  0  0
   19.4195   24.9814   38.6686 H   0  0  0  0  0  0  0  0  0  0  0  0
   20.8169   23.7731   40.4431 H   0  0  0  0  0  0  0  0  0  0  0  0
   21.3364   25.4503   40.0933 H   0  0  0  0  0  0  0  0  0  0  0  0
   24.1835   24.3695   38.2014 H   0  0  0  0  0  0  0  0  0  0  0  0
   23.4768   25.7598   39.0884 H   0  0  0  0  0  0  0  0  0  0  0  0
   21.2503   27.8769   33.0164 H   0  0  0  0  0  0  0  0  0  0  0  0
   21.5994   26.2373   32.3247 H   0  0  0  0  0  0  0  0  0  0  0  0
   18.9280   27.7625   32.0789 H   0  0  0  0  0  0  0  0  0  0  0  0
   19.3077   26.1433   31.3610 H   0  0  0  0  0  0  0  0  0  0  0  0
   20.1867   27.6164   30.7886 H   0  0  0  0  0  0  0  0  0  0  0  0
  1  2  1  0
  2  3  2  0
  2  4  1  0
  4  5  2  0
  5  6  1  0
  6  7  2  0
  7  8  1  0
  8  9  2  0
  9 10  1  0
 10 11  2  0
 11 12  1  0
 12 13  2  0
 13 14  1  0
  1 15  1  0
 15 16  2  0
 16 17  1  0
 17 18  2  0
 18 19  1  0
 19 20  1  0
 20 21  1  0
 21 22  1  0
 22 23  1  0
 23 24  1  0
 17 25  1  0
 25 26  1  0
 26 27  1  0
 13  4  1  0
 24 15  1  0
 12  7  1  0
 24 19  2  0
  1 28  1  0
  8 29  1  0
  9 30  1  0
 10 31  1  0
 11 32  1  0
 14 33  1  0
 14 34  1  0
 18 35  1  0
 20 36  1  0
 20 37  1  0
 21 38  1  0
 21 39  1  0
 23 40  1  0
 23 41  1  0
 26 42  1  0
 26 43  1  0
 27 44  1  0
 27 45  1  0
 27 46  1  0
M  END
$$$$
