confid_0
     RDKit          3D

 43 46  0  0  0  0  0  0  0  0999 V2000
   24.6900   26.1200   35.5300 N   0  0  0  0  0  0  0  0  0  0  0  0
   25.6600   25.6700   34.6600 C   0  0  0  0  0  0  0  0  0  0  0  0
   25.2400   25.0100   33.7200 O   0  0  0  0  0  0  0  0  0  0  0  0
   27.0300   26.2200   34.8800 C   0  0  0  0  0  0  0  0  0  0  0  0
   27.3500   26.7300   36.0700 N   0  0  0  0  0  0  0  0  0  0  0  0
   28.5700   27.1800   36.3300 N   0  0  0  0  0  0  0  0  0  0  0  0
   29.5300   27.1100   35.3900 C   0  0  0  0  0  0  0  0  0  0  0  0
   30.8300   27.5700   35.6500 C   0  0  0  0  0  0  0  0  0  0  0  0
   31.8500   27.5400   34.6900 C   0  0  0  0  0  0  0  0  0  0  0  0
   31.5100   27.1200   33.4000 C   0  0  0  0  0  0  0  0  0  0  0  0
   30.2200   26.6300   33.1100 C   0  0  0  0  0  0  0  0  0  0  0  0
   29.2400   26.6600   34.1000 C   0  0  0  0  0  0  0  0  0  0  0  0
   27.9300   26.2600   33.8100 C   0  0  0  0  0  0  0  0  0  0  0  0
   27.5200   25.7100   32.6100 N   0  0  0  0  0  0  0  0  0  0  0  0
   23.4339   25.4519   35.7925 C   0  0  0  0  0  0  0  0  0  0  0  0
   22.9825   24.4748   34.9438 N   0  0  0  0  0  0  0  0  0  0  0  0
   21.8021   23.8262   35.1293 C   0  0  0  0  0  0  0  0  0  0  0  0
   21.0268   24.1716   36.2243 C   0  0  0  0  0  0  0  0  0  0  0  0
   19.7402   23.6753   36.6346 C   0  0  0  0  0  0  0  0  0  0  0  0
   19.0652   22.7862   36.0503 O   0  0  0  0  0  0  0  0  0  0  0  0
   19.3322   24.3499   37.8135 N   0  0  0  0  0  0  0  0  0  0  0  0
   20.3734   25.3073   38.1933 C   0  0  0  0  0  0  0  0  0  0  0  0
   21.4320   25.1379   37.1234 C   0  0  0  0  0  0  0  0  0  0  0  0
   22.6642   25.8099   36.9320 C   0  0  0  0  0  0  0  0  0  0  0  0
   23.1757   26.7980   37.7971 O   0  0  0  0  0  0  0  0  0  0  0  0
   22.6558   27.1713   39.0652 C   0  0  0  0  0  0  0  0  0  0  0  0
   18.0913   24.1179   38.5394 C   0  0  0  0  0  0  0  0  0  0  0  0
   24.8924   26.9790   36.0893 H   0  0  0  0  0  0  0  0  0  0  0  0
   31.0673   27.9416   36.6394 H   0  0  0  0  0  0  0  0  0  0  0  0
   32.8482   27.8887   34.9208 H   0  0  0  0  0  0  0  0  0  0  0  0
   32.2641   27.1263   32.6236 H   0  0  0  0  0  0  0  0  0  0  0  0
   30.0101   26.3034   32.1003 H   0  0  0  0  0  0  0  0  0  0  0  0
   26.6930   26.1016   32.1063 H   0  0  0  0  0  0  0  0  0  0  0  0
   28.1322   25.0447   32.0885 H   0  0  0  0  0  0  0  0  0  0  0  0
   21.4780   23.0665   34.4301 H   0  0  0  0  0  0  0  0  0  0  0  0
   20.7697   25.0383   39.1930 H   0  0  0  0  0  0  0  0  0  0  0  0
   19.9552   26.3347   38.1763 H   0  0  0  0  0  0  0  0  0  0  0  0
   22.6048   26.2882   39.7356 H   0  0  0  0  0  0  0  0  0  0  0  0
   23.3447   27.9102   39.5294 H   0  0  0  0  0  0  0  0  0  0  0  0
   21.6648   27.6570   38.9518 H   0  0  0  0  0  0  0  0  0  0  0  0
   18.0376   24.7770   39.4325 H   0  0  0  0  0  0  0  0  0  0  0  0
   18.0450   23.0594   38.8689 H   0  0  0  0  0  0  0  0  0  0  0  0
   17.2278   24.3356   37.8780 H   0  0  0  0  0  0  0  0  0  0  0  0
  1  2  1  0
  2  3  2  0
  2  4  1  0
  4  5  2  0
  5  6  1  0
  6  7  2  0
  7  8  1  0
  8  9  2  0
  9 10  1  0
 10 11  2  0
 11 12  1  0
 12 13  2  0
 13 14  1  0
  1 15  1  0
 15 16  2  0
 16 17  1  0
 17 18  2  0
 18 19  1  0
 19 20  2  0
 19 21  1  0
 21 22  1  0
 22 23  1  0
 23 24  2  0
 24 25  1  0
 25 26  1  0
 21 27  1  0
 13  4  1  0
 24 15  1  0
 12  7  1  0
 23 18  1  0
  1 28  1  0
  8 29  1  0
  9 30  1  0
 10 31  1  0
 11 32  1  0
 14 33  1  0
 14 34  1  0
 17 35  1  0
 22 36  1  0
 22 37  1  0
 26 38  1  0
 26 39  1  0
 26 40  1  0
 27 41  1  0
 27 42  1  0
 27 43  1  0
M  END
$$$$
confid_1
     RDKit          3D

 43 46  0  0  0  0  0  0  0  0999 V2000
   24.6900   26.1200   35.5300 N   0  0  0  0  0  0  0  0  0  0  0  0
   25.6600   25.6700   34.6600 C   0  0  0  0  0  0  0  0  0  0  0  0
   25.2400   25.0100   33.7200 O   0  0  0  0  0  0  0  0  0  0  0  0
   27.0300   26.2200   34.8800 C   0  0  0  0  0  0  0  0  0  0  0  0
   27.3500   26.7300   36.0700 N   0  0  0  0  0  0  0  0  0  0  0  0
   28.5700   27.1800   36.3300 N   0  0  0  0  0  0  0  0  0  0  0  0
   29.5300   27.1100   35.3900 C   0  0  0  0  0  0  0  0  0  0  0  0
   30.8300   27.5700   35.6500 C   0  0  0  0  0  0  0  0  0  0  0  0
   31.8500   27.5400   34.6900 C   0  0  0  0  0  0  0  0  0  0  0  0
   31.5100   27.1200   33.4000 C   0  0  0  0  0  0  0  0  0  0  0  0
   30.2200   26.6300   33.1100 C   0  0  0  0  0  0  0  0  0  0  0  0
   29.2400   26.6600   34.1000 C   0  0  0  0  0  0  0  0  0  0  0  0
   27.9300   26.2600   33.8100 C   0  0  0  0  0  0  0  0  0  0  0  0
   27.5200   25.7100   32.6100 N   0  0  0  0  0  0  0  0  0  0  0  0
   23.5067   25.3701   35.8705 C   0  0  0  0  0  0  0  0  0  0  0  0
   23.3919   24.0546   35.4975 N   0  0  0  0  0  0  0  0  0  0  0  0
   22.2998   23.2994   35.8046 C   0  0  0  0  0  0  0  0  0  0  0  0
   21.2726   23.8902   36.5286 C   0  0  0  0  0  0  0  0  0  0  0  0
   19.9992   23.3712   36.9548 C   0  0  0  0  0  0  0  0  0  0  0  0
   19.5710   22.2028   36.7598 O   0  0  0  0  0  0  0  0  0  0  0  0
   19.2779   24.3922   37.6332 N   0  0  0  0  0  0  0  0  0  0  0  0
   20.0945   25.6094   37.6636 C   0  0  0  0  0  0  0  0  0  0  0  0
   21.3489   25.2018   36.9357 C   0  0  0  0  0  0  0  0  0  0  0  0
   22.4693   25.9766   36.6185 C   0  0  0  0  0  0  0  0  0  0  0  0
   22.5488   27.3161   37.0033 O   0  0  0  0  0  0  0  0  0  0  0  0
   22.9191   27.6906   38.3237 C   0  0  0  0  0  0  0  0  0  0  0  0
   17.9473   24.2501   38.2089 C   0  0  0  0  0  0  0  0  0  0  0  0
   24.8257   27.0508   35.9861 H   0  0  0  0  0  0  0  0  0  0  0  0
   31.0672   27.9417   36.6393 H   0  0  0  0  0  0  0  0  0  0  0  0
   32.8482   27.8886   34.9211 H   0  0  0  0  0  0  0  0  0  0  0  0
   32.2640   27.1263   32.6235 H   0  0  0  0  0  0  0  0  0  0  0  0
   30.0101   26.3033   32.1004 H   0  0  0  0  0  0  0  0  0  0  0  0
   26.6937   26.1024   32.1057 H   0  0  0  0  0  0  0  0  0  0  0  0
   28.1316   25.0435   32.0892 H   0  0  0  0  0  0  0  0  0  0  0  0
   22.2374   22.2684   35.4830 H   0  0  0  0  0  0  0  0  0  0  0  0
   19.5799   26.4341   37.1263 H   0  0  0  0  0  0  0  0  0  0  0  0
   20.3181   25.8897   38.7136 H   0  0  0  0  0  0  0  0  0  0  0  0
   22.9377   28.7972   38.3963 H   0  0  0  0  0  0  0  0  0  0  0  0
   23.9309   27.2976   38.5586 H   0  0  0  0  0  0  0  0  0  0  0  0
   22.1891   27.2958   39.0589 H   0  0  0  0  0  0  0  0  0  0  0  0
   17.9583   23.4525   38.9808 H   0  0  0  0  0  0  0  0  0  0  0  0
   17.6286   25.2039   38.6798 H   0  0  0  0  0  0  0  0  0  0  0  0
   17.2230   23.9814   37.4118 H   0  0  0  0  0  0  0  0  0  0  0  0
  1  2  1  0
  2  3  2  0
  2  4  1  0
  4  5  2  0
  5  6  1  0
  6  7  2  0
  7  8  1  0
  8  9  2  0
  9 10  1  0
 10 11  2  0
 11 12  1  0
 12 13  2  0
 13 14  1  0
  1 15  1  0
 15 16  2  0
 16 17  1  0
 17 18  2  0
 18 19  1  0
 19 20  2  0
 19 21  1  0
 21 22  1  0
 22 23  1  0
 23 24  2  0
 24 25  1  0
 25 26  1  0
 21 27  1  0
 13  4  1  0
 24 15  1  0
 12  7  1  0
 23 18  1  0
  1 28  1  0
  8 29  1  0
  9 30  1  0
 10 31  1  0
 11 32  1  0
 14 33  1  0
 14 34  1  0
 17 35  1  0
 22 36  1  0
 22 37  1  0
 26 38  1  0
 26 39  1  0
 26 40  1  0
 27 41  1  0
 27 42  1  0
 27 43  1  0
M  END
$$$$
confid_2
     RDKit          3D

 43 46  0  0  0  0  0  0  0  0999 V2000
   24.6900   26.1200   35.5300 N   0  0  0  0  0  0  0  0  0  0  0  0
   25.6600   25.6700   34.6600 C   0  0  0  0  0  0  0  0  0  0  0  0
   25.2400   25.0100   33.7200 O   0  0  0  0  0  0  0  0  0  0  0  0
   27.0300   26.2200   34.8800 C   0  0  0  0  0  0  0  0  0  0  0  0
   27.3500   26.7300   36.0700 N   0  0  0  0  0  0  0  0  0  0  0  0
   28.5700   27.1800   36.3300 N   0  0  0  0  0  0  0  0  0  0  0  0
   29.5300   27.1100   35.3900 C   0  0  0  0  0  0  0  0  0  0  0  0
   30.8300   27.5700   35.6500 C   0  0  0  0  0  0  0  0  0  0  0  0
   31.8500   27.5400   34.6900 C   0  0  0  0  0  0  0  0  0  0  0  0
   31.5100   27.1200   33.4000 C   0  0  0  0  0  0  0  0  0  0  0  0
   30.2200   26.6300   33.1100 C   0  0  0  0  0  0  0  0  0  0  0  0
   29.2400   26.6600   34.1000 C   0  0  0  0  0  0  0  0  0  0  0  0
   27.9300   26.2600   33.8100 C   0  0  0  0  0  0  0  0  0  0  0  0
   27.5200   25.7100   32.6100 N   0  0  0  0  0  0  0  0  0  0  0  0
   23.4393   26.6932   35.0937 C   0  0  0  0  0  0  0  0  0  0  0  0
   23.2197   26.9097   33.7580 N   0  0  0  0  0  0  0  0  0  0  0  0
   22.0837   27.4863   33.2847 C   0  0  0  0  0  0  0  0  0  0  0  0
   21.1091   27.8637   34.1935 C   0  0  0  0  0  0  0  0  0  0  0  0
   19.8315   28.4856   33.9701 C   0  0  0  0  0  0  0  0  0  0  0  0
   19.3487   28.8140   32.8536 O   0  0  0  0  0  0  0  0  0  0  0  0
   19.1764   28.6687   35.2139 N   0  0  0  0  0  0  0  0  0  0  0  0
   20.0446   28.1682   36.2835 C   0  0  0  0  0  0  0  0  0  0  0  0
   21.2726   27.6707   35.5515 C   0  0  0  0  0  0  0  0  0  0  0  0
   22.4605   27.0786   36.0451 C   0  0  0  0  0  0  0  0  0  0  0  0
   22.7295   26.8456   37.4076 O   0  0  0  0  0  0  0  0  0  0  0  0
   21.9705   27.3080   38.5156 C   0  0  0  0  0  0  0  0  0  0  0  0
   17.8637   29.2750   35.4028 C   0  0  0  0  0  0  0  0  0  0  0  0
   24.9060   26.0986   36.5510 H   0  0  0  0  0  0  0  0  0  0  0  0
   31.0673   27.9414   36.6394 H   0  0  0  0  0  0  0  0  0  0  0  0
   32.8489   27.8865   34.9216 H   0  0  0  0  0  0  0  0  0  0  0  0
   32.2656   27.1203   32.6251 H   0  0  0  0  0  0  0  0  0  0  0  0
   30.0115   26.2780   32.1078 H   0  0  0  0  0  0  0  0  0  0  0  0
   27.6984   26.2224   31.7182 H   0  0  0  0  0  0  0  0  0  0  0  0
   27.3402   24.6834   32.5418 H   0  0  0  0  0  0  0  0  0  0  0  0
   21.9493   27.6430   32.2229 H   0  0  0  0  0  0  0  0  0  0  0  0
   19.5361   27.3350   36.8127 H   0  0  0  0  0  0  0  0  0  0  0  0
   20.2990   29.0023   36.9694 H   0  0  0  0  0  0  0  0  0  0  0  0
   22.4851   27.0078   39.4503 H   0  0  0  0  0  0  0  0  0  0  0  0
   20.9689   26.8388   38.5231 H   0  0  0  0  0  0  0  0  0  0  0  0
   21.9090   28.4161   38.4984 H   0  0  0  0  0  0  0  0  0  0  0  0
   17.0995   28.7022   34.8385 H   0  0  0  0  0  0  0  0  0  0  0  0
   17.5918   29.2727   36.4787 H   0  0  0  0  0  0  0  0  0  0  0  0
   17.8796   30.3217   35.0343 H   0  0  0  0  0  0  0  0  0  0  0  0
  1  2  1  0
  2  3  2  0
  2  4  1  0
  4  5  2  0
  5  6  1  0
  6  7  2  0
  7  8  1  0
  8  9  2  0
  9 10  1  0
 10 11  2  0
 11 12  1  0
 12 13  2  0
 13 14  1  0
  1 15  1  0
 15 16  2  0
 16 17  1  0
 17 18  2  0
 18 19  1  0
 19 20  2  0
 19 21  1  0
 21 22  1  0
 22 23  1  0
 23 24  2  0
 24 25  1  0
 25 26  1  0
 21 27  1  0
 13  4  1  0
 24 15  1  0
 12  7  1  0
 23 18  1  0
  1 28  1  0
  8 29  1  0
  9 30  1  0
 10 31  1  0
 11 32  1  0
 14 33  1  0
 14 34  1  0
 17 35  1  0
 22 36  1  0
 22 37  1  0
 26 38  1  0
 26 39  1  0
 26 40  1  0
 27 41  1  0
 27 42  1  0
 27 43  1  0
M  END
$$$$
confid_3
     RDKit          3D

 43 46  0  0  0  0  0  0  0  0999 V2000
   24.6900   26.1200   35.5300 N   0  0  0  0  0  0  0  0  0  0  0  0
   25.6600   25.6700   34.6600 C   0  0  0  0  0  0  0  0  0  0  0  0
   25.2400   25.0100   33.7200 O   0  0  0  0  0  0  0  0  0  0  0  0
   27.0300   26.2200   34.8800 C   0  0  0  0  0  0  0  0  0  0  0  0
   27.3500   26.7300   36.0700 N   0  0  0  0  0  0  0  0  0  0  0  0
   28.5700   27.1800   36.3300 N   0  0  0  0  0  0  0  0  0  0  0  0
   29.5300   27.1100   35.3900 C   0  0  0  0  0  0  0  0  0  0  0  0
   30.8300   27.5700   35.6500 C   0  0  0  0  0  0  0  0  0  0  0  0
   31.8500   27.5400   34.6900 C   0  0  0  0  0  0  0  0  0  0  0  0
   31.5100   27.1200   33.4000 C   0  0  0  0  0  0  0  0  0  0  0  0
   30.2200   26.6300   33.1100 C   0  0  0  0  0  0  0  0  0  0  0  0
   29.2400   26.6600   34.1000 C   0  0  0  0  0  0  0  0  0  0  0  0
   27.9300   26.2600   33.8100 C   0  0  0  0  0  0  0  0  0  0  0  0
   27.5200   25.7100   32.6100 N   0  0  0  0  0  0  0  0  0  0  0  0
   23.4784   25.3957   35.8161 C   0  0  0  0  0  0  0  0  0  0  0  0
   23.4106   24.0482   35.5648 N   0  0  0  0  0  0  0  0  0  0  0  0
   22.3151   23.2995   35.8774 C   0  0  0  0  0  0  0  0  0  0  0  0
   21.2400   23.9298   36.4899 C   0  0  0  0  0  0  0  0  0  0  0  0
   19.9677   23.4192   36.9303 C   0  0  0  0  0  0  0  0  0  0  0  0
   19.5770   22.2248   36.8435 O   0  0  0  0  0  0  0  0  0  0  0  0
   19.2005   24.4813   37.4854 N   0  0  0  0  0  0  0  0  0  0  0  0
   19.9808   25.7203   37.4083 C   0  0  0  0  0  0  0  0  0  0  0  0
   21.2664   25.2762   36.7651 C   0  0  0  0  0  0  0  0  0  0  0  0
   22.3764   26.0492   36.4227 C   0  0  0  0  0  0  0  0  0  0  0  0
   22.3751   27.4214   36.6817 O   0  0  0  0  0  0  0  0  0  0  0  0
   22.2775   28.3791   35.6344 C   0  0  0  0  0  0  0  0  0  0  0  0
   17.8566   24.3591   38.0342 C   0  0  0  0  0  0  0  0  0  0  0  0
   24.8450   27.0210   36.0370 H   0  0  0  0  0  0  0  0  0  0  0  0
   31.0672   27.9417   36.6393 H   0  0  0  0  0  0  0  0  0  0  0  0
   32.8482   27.8886   34.9211 H   0  0  0  0  0  0  0  0  0  0  0  0
   32.2640   27.1263   32.6235 H   0  0  0  0  0  0  0  0  0  0  0  0
   30.0101   26.3033   32.1004 H   0  0  0  0  0  0  0  0  0  0  0  0
   28.1316   25.0435   32.0892 H   0  0  0  0  0  0  0  0  0  0  0  0
   26.6937   26.1023   32.1057 H   0  0  0  0  0  0  0  0  0  0  0  0
   22.2936   22.2401   35.6595 H   0  0  0  0  0  0  0  0  0  0  0  0
   19.4608   26.4658   36.7699 H   0  0  0  0  0  0  0  0  0  0  0  0
   20.1704   26.1228   38.4260 H   0  0  0  0  0  0  0  0  0  0  0  0
   21.3132   28.2519   35.0984 H   0  0  0  0  0  0  0  0  0  0  0  0
   23.1147   28.2646   34.9155 H   0  0  0  0  0  0  0  0  0  0  0  0
   22.3146   29.3989   36.0691 H   0  0  0  0  0  0  0  0  0  0  0  0
   17.1655   23.9881   37.2489 H   0  0  0  0  0  0  0  0  0  0  0  0
   17.8648   23.6460   38.8847 H   0  0  0  0  0  0  0  0  0  0  0  0
   17.4975   25.3463   38.3941 H   0  0  0  0  0  0  0  0  0  0  0  0
  1  2  1  0
  2  3  2  0
  2  4  1  0
  4  5  2  0
  5  6  1  0
  6  7  2  0
  7  8  1  0
  8  9  2  0
  9 10  1  0
 10 11  2  0
 11 12  1  0
 12 13  2  0
 13 14  1  0
  1 15  1  0
 15 16  2  0
 16 17  1  0
 17 18  2  0
 18 19  1  0
 19 20  2  0
 19 21  1  0
 21 22  1  0
 22 23  1  0
 23 24  2  0
 24 25  1  0
 25 26  1  0
 21 27  1  0
 13  4  1  0
 24 15  1  0
 12  7  1  0
 23 18  1  0
  1 28  1  0
  8 29  1  0
  9 30  1  0
 10 31  1  0
 11 32  1  0
 14 33  1  0
 14 34  1  0
 17 35  1  0
 22 36  1  0
 22 37  1  0
 26 38  1  0
 26 39  1  0
 26 40  1  0
 27 41  1  0
 27 42  1  0
 27 43  1  0
M  END
$$$$
confid_4
     RDKit          3D

 43 46  0  0  0  0  0  0  0  0999 V2000
   24.6900   26.1200   35.5300 N   0  0  0  0  0  0  0  0  0  0  0  0
   25.6600   25.6700   34.6600 C   0  0  0  0  0  0  0  0  0  0  0  0
   25.2400   25.0100   33.7200 O   0  0  0  0  0  0  0  0  0  0  0  0
   27.0300   26.2200   34.8800 C   0  0  0  0  0  0  0  0  0  0  0  0
   27.3500   26.7300   36.0700 N   0  0  0  0  0  0  0  0  0  0  0  0
   28.5700   27.1800   36.3300 N   0  0  0  0  0  0  0  0  0  0  0  0
   29.5300   27.1100   35.3900 C   0  0  0  0  0  0  0  0  0  0  0  0
   30.8300   27.5700   35.6500 C   0  0  0  0  0  0  0  0  0  0  0  0
   31.8500   27.5400   34.6900 C   0  0  0  0  0  0  0  0  0  0  0  0
   31.5100   27.1200   33.4000 C   0  0  0  0  0  0  0  0  0  0  0  0
   30.2200   26.6300   33.1100 C   0  0  0  0  0  0  0  0  0  0  0  0
   29.2400   26.6600   34.1000 C   0  0  0  0  0  0  0  0  0  0  0  0
   27.9300   26.2600   33.8100 C   0  0  0  0  0  0  0  0  0  0  0  0
   27.5200   25.7100   32.6100 N   0  0  0  0  0  0  0  0  0  0  0  0
   23.4846   25.3900   35.8428 C   0  0  0  0  0  0  0  0  0  0  0  0
   23.3566   24.0846   35.4462 N   0  0  0  0  0  0  0  0  0  0  0  0
   22.2492   23.3428   35.7123 C   0  0  0  0  0  0  0  0  0  0  0  0
   21.2160   23.9339   36.4214 C   0  0  0  0  0  0  0  0  0  0  0  0
   19.9412   23.3941   36.8110 C   0  0  0  0  0  0  0  0  0  0  0  0
   19.5218   22.2304   36.5709 O   0  0  0  0  0  0  0  0  0  0  0  0
   19.2038   24.3879   37.5036 N   0  0  0  0  0  0  0  0  0  0  0  0
   20.0078   25.6105   37.5719 C   0  0  0  0  0  0  0  0  0  0  0  0
   21.2908   25.2421   36.8575 C   0  0  0  0  0  0  0  0  0  0  0  0
   22.4441   26.0141   36.5797 C   0  0  0  0  0  0  0  0  0  0  0  0
   22.6234   27.3526   36.9770 O   0  0  0  0  0  0  0  0  0  0  0  0
   21.7558   28.1234   37.7984 C   0  0  0  0  0  0  0  0  0  0  0  0
   17.8670   24.2207   38.0584 C   0  0  0  0  0  0  0  0  0  0  0  0
   24.8402   27.0399   36.0024 H   0  0  0  0  0  0  0  0  0  0  0  0
   31.0674   27.9418   36.6392 H   0  0  0  0  0  0  0  0  0  0  0  0
   32.8481   27.8887   34.9211 H   0  0  0  0  0  0  0  0  0  0  0  0
   32.2640   27.1263   32.6235 H   0  0  0  0  0  0  0  0  0  0  0  0
   30.0100   26.3032   32.1004 H   0  0  0  0  0  0  0  0  0  0  0  0
   28.1316   25.0436   32.0893 H   0  0  0  0  0  0  0  0  0  0  0  0
   26.6936   26.1024   32.1058 H   0  0  0  0  0  0  0  0  0  0  0  0
   22.1824   22.3170   35.3746 H   0  0  0  0  0  0  0  0  0  0  0  0
   20.2014   25.8644   38.6340 H   0  0  0  0  0  0  0  0  0  0  0  0
   19.4798   26.4291   37.0402 H   0  0  0  0  0  0  0  0  0  0  0  0
   21.6338   27.6420   38.7898 H   0  0  0  0  0  0  0  0  0  0  0  0
   20.7790   28.2779   37.2979 H   0  0  0  0  0  0  0  0  0  0  0  0
   22.2137   29.1209   37.9601 H   0  0  0  0  0  0  0  0  0  0  0  0
   17.5380   25.1576   38.5568 H   0  0  0  0  0  0  0  0  0  0  0  0
   17.8719   23.3971   38.8027 H   0  0  0  0  0  0  0  0  0  0  0  0
   17.1533   23.9766   37.2436 H   0  0  0  0  0  0  0  0  0  0  0  0
  1  2  1  0
  2  3  2  0
  2  4  1  0
  4  5  2  0
  5  6  1  0
  6  7  2  0
  7  8  1  0
  8  9  2  0
  9 10  1  0
 10 11  2  0
 11 12  1  0
 12 13  2  0
 13 14  1  0
  1 15  1  0
 15 16  2  0
 16 17  1  0
 17 18  2  0
 18 19  1  0
 19 20  2  0
 19 21  1  0
 21 22  1  0
 22 23  1  0
 23 24  2  0
 24 25  1  0
 25 26  1  0
 21 27  1  0
 13  4  1  0
 24 15  1  0
 12  7  1  0
 23 18  1  0
  1 28  1  0
  8 29  1  0
  9 30  1  0
 10 31  1  0
 11 32  1  0
 14 33  1  0
 14 34  1  0
 17 35  1  0
 22 36  1  0
 22 37  1  0
 26 38  1  0
 26 39  1  0
 26 40  1  0
 27 41  1  0
 27 42  1  0
 27 43  1  0
M  END
$$$$
confid_5
     RDKit          3D

 43 46  0  0  0  0  0  0  0  0999 V2000
   24.6900   26.1200   35.5300 N   0  0  0  0  0  0  0  0  0  0  0  0
   25.6600   25.6700   34.6600 C   0  0  0  0  0  0  0  0  0  0  0  0
   25.2400   25.0100   33.7200 O   0  0  0  0  0  0  0  0  0  0  0  0
   27.0300   26.2200   34.8800 C   0  0  0  0  0  0  0  0  0  0  0  0
   27.3500   26.7300   36.0700 N   0  0  0  0  0  0  0  0  0  0  0  0
   28.5700   27.1800   36.3300 N   0  0  0  0  0  0  0  0  0  0  0  0
   29.5300   27.1100   35.3900 C   0  0  0  0  0  0  0  0  0  0  0  0
   30.8300   27.5700   35.6500 C   0  0  0  0  0  0  0  0  0  0  0  0
   31.8500   27.5400   34.6900 C   0  0  0  0  0  0  0  0  0  0  0  0
   31.5100   27.1200   33.4000 C   0  0  0  0  0  0  0  0  0  0  0  0
   30.2200   26.6300   33.1100 C   0  0  0  0  0  0  0  0  0  0  0  0
   29.2400   26.6600   34.1000 C   0  0  0  0  0  0  0  0  0  0  0  0
   27.9300   26.2600   33.8100 C   0  0  0  0  0  0  0  0  0  0  0  0
   27.5200   25.7100   32.6100 N   0  0  0  0  0  0  0  0  0  0  0  0
   23.5394   25.3457   35.9287 C   0  0  0  0  0  0  0  0  0  0  0  0
   23.2691   24.1436   35.3257 N   0  0  0  0  0  0  0  0  0  0  0  0
   22.1902   23.3805   35.6609 C   0  0  0  0  0  0  0  0  0  0  0  0
   21.3328   23.8484   36.6468 C   0  0  0  0  0  0  0  0  0  0  0  0
   20.1404   23.2768   37.2157 C   0  0  0  0  0  0  0  0  0  0  0  0
   19.6122   22.1809   36.8856 O   0  0  0  0  0  0  0  0  0  0  0  0
   19.6403   24.1411   38.2290 N   0  0  0  0  0  0  0  0  0  0  0  0
   20.5204   25.3094   38.3326 C   0  0  0  0  0  0  0  0  0  0  0  0
   21.5702   25.0400   37.2876 C   0  0  0  0  0  0  0  0  0  0  0  0
   22.6860   25.8122   36.9588 C   0  0  0  0  0  0  0  0  0  0  0  0
   22.9486   26.9962   37.6488 O   0  0  0  0  0  0  0  0  0  0  0  0
   23.8277   27.0122   38.7658 C   0  0  0  0  0  0  0  0  0  0  0  0
   18.4622   23.8936   39.0487 C   0  0  0  0  0  0  0  0  0  0  0  0
   24.8296   27.0515   35.9830 H   0  0  0  0  0  0  0  0  0  0  0  0
   31.0673   27.9416   36.6393 H   0  0  0  0  0  0  0  0  0  0  0  0
   32.8483   27.8885   34.9210 H   0  0  0  0  0  0  0  0  0  0  0  0
   32.2640   27.1262   32.6235 H   0  0  0  0  0  0  0  0  0  0  0  0
   30.0100   26.3035   32.1003 H   0  0  0  0  0  0  0  0  0  0  0  0
   26.6937   26.1024   32.1057 H   0  0  0  0  0  0  0  0  0  0  0  0
   28.1317   25.0438   32.0889 H   0  0  0  0  0  0  0  0  0  0  0  0
   22.0115   22.4382   35.1665 H   0  0  0  0  0  0  0  0  0  0  0  0
   19.9593   26.2392   38.0949 H   0  0  0  0  0  0  0  0  0  0  0  0
   20.9776   25.3608   39.3448 H   0  0  0  0  0  0  0  0  0  0  0  0
   24.8468   26.6997   38.4567 H   0  0  0  0  0  0  0  0  0  0  0  0
   23.4518   26.3230   39.5524 H   0  0  0  0  0  0  0  0  0  0  0  0
   23.8766   28.0404   39.1808 H   0  0  0  0  0  0  0  0  0  0  0  0
   18.3169   24.7226   39.7749 H   0  0  0  0  0  0  0  0  0  0  0  0
   17.5639   23.8224   38.3983 H   0  0  0  0  0  0  0  0  0  0  0  0
   18.5907   22.9410   39.6064 H   0  0  0  0  0  0  0  0  0  0  0  0
  1  2  1  0
  2  3  2  0
  2  4  1  0
  4  5  2  0
  5  6  1  0
  6  7  2  0
  7  8  1  0
  8  9  2  0
  9 10  1  0
 10 11  2  0
 11 12  1  0
 12 13  2  0
 13 14  1  0
  1 15  1  0
 15 16  2  0
 16 17  1  0
 17 18  2  0
 18 19  1  0
 19 20  2  0
 19 21  1  0
 21 22  1  0
 22 23  1  0
 23 24  2  0
 24 25  1  0
 25 26  1  0
 21 27  1  0
 13  4  1  0
 24 15  1  0
 12  7  1  0
 23 18  1  0
  1 28  1  0
  8 29  1  0
  9 30  1  0
 10 31  1  0
 11 32  1  0
 14 33  1  0
 14 34  1  0
 17 35  1  0
 22 36  1  0
 22 37  1  0
 26 38  1  0
 26 39  1  0
 26 40  1  0
 27 41  1  0
 27 42  1  0
 27 43  1  0
M  END
$$$$
confid_6
     RDKit          3D

 43 46  0  0  0  0  0  0  0  0999 V2000
   24.6900   26.1200   35.5300 N   0  0  0  0  0  0  0  0  0  0  0  0
   25.6600   25.6700   34.6600 C   0  0  0  0  0  0  0  0  0  0  0  0
   25.2400   25.0100   33.7200 O   0  0  0  0  0  0  0  0  0  0  0  0
   27.0300   26.2200   34.8800 C   0  0  0  0  0  0  0  0  0  0  0  0
   27.3500   26.7300   36.0700 N   0  0  0  0  0  0  0  0  0  0  0  0
   28.5700   27.1800   36.3300 N   0  0  0  0  0  0  0  0  0  0  0  0
   29.5300   27.1100   35.3900 C   0  0  0  0  0  0  0  0  0  0  0  0
   30.8300   27.5700   35.6500 C   0  0  0  0  0  0  0  0  0  0  0  0
   31.8500   27.5400   34.6900 C   0  0  0  0  0  0  0  0  0  0  0  0
   31.5100   27.1200   33.4000 C   0  0  0  0  0  0  0  0  0  0  0  0
   30.2200   26.6300   33.1100 C   0  0  0  0  0  0  0  0  0  0  0  0
   29.2400   26.6600   34.1000 C   0  0  0  0  0  0  0  0  0  0  0  0
   27.9300   26.2600   33.8100 C   0  0  0  0  0  0  0  0  0  0  0  0
   27.5200   25.7100   32.6100 N   0  0  0  0  0  0  0  0  0  0  0  0
   23.2859   26.1993   35.2106 C   0  0  0  0  0  0  0  0  0  0  0  0
   22.8859   26.3403   33.9040 N   0  0  0  0  0  0  0  0  0  0  0  0
   21.5787   26.4984   33.5496 C   0  0  0  0  0  0  0  0  0  0  0  0
   20.6246   26.5388   34.5577 C   0  0  0  0  0  0  0  0  0  0  0  0
   19.1924   26.6806   34.5010 C   0  0  0  0  0  0  0  0  0  0  0  0
   18.4989   26.8042   33.4561 O   0  0  0  0  0  0  0  0  0  0  0  0
   18.6633   26.6410   35.8220 N   0  0  0  0  0  0  0  0  0  0  0  0
   19.7678   26.4637   36.7712 C   0  0  0  0  0  0  0  0  0  0  0  0
   20.9801   26.4121   35.8808 C   0  0  0  0  0  0  0  0  0  0  0  0
   22.3146   26.2226   36.2441 C   0  0  0  0  0  0  0  0  0  0  0  0
   22.6526   26.0658   37.5923 O   0  0  0  0  0  0  0  0  0  0  0  0
   23.1332   24.8297   38.1087 C   0  0  0  0  0  0  0  0  0  0  0  0
   17.2526   26.7423   36.1728 C   0  0  0  0  0  0  0  0  0  0  0  0
   24.9691   26.4339   36.4867 H   0  0  0  0  0  0  0  0  0  0  0  0
   31.0673   27.9416   36.6393 H   0  0  0  0  0  0  0  0  0  0  0  0
   32.8482   27.8887   34.9210 H   0  0  0  0  0  0  0  0  0  0  0  0
   32.2641   27.1261   32.6236 H   0  0  0  0  0  0  0  0  0  0  0  0
   30.0100   26.3033   32.1004 H   0  0  0  0  0  0  0  0  0  0  0  0
   28.1315   25.0435   32.0892 H   0  0  0  0  0  0  0  0  0  0  0  0
   26.6936   26.1023   32.1058 H   0  0  0  0  0  0  0  0  0  0  0  0
   21.2988   26.5948   32.5081 H   0  0  0  0  0  0  0  0  0  0  0  0
   19.8270   27.3307   37.4627 H   0  0  0  0  0  0  0  0  0  0  0  0
   19.6495   25.5087   37.3272 H   0  0  0  0  0  0  0  0  0  0  0  0
   24.0600   24.5143   37.5874 H   0  0  0  0  0  0  0  0  0  0  0  0
   22.3579   24.0436   37.9849 H   0  0  0  0  0  0  0  0  0  0  0  0
   23.3545   24.9502   39.1892 H   0  0  0  0  0  0  0  0  0  0  0  0
   16.8467   27.7102   35.8102 H   0  0  0  0  0  0  0  0  0  0  0  0
   17.1264   26.6865   37.2753 H   0  0  0  0  0  0  0  0  0  0  0  0
   16.6897   25.9082   35.7023 H   0  0  0  0  0  0  0  0  0  0  0  0
  1  2  1  0
  2  3  2  0
  2  4  1  0
  4  5  2  0
  5  6  1  0
  6  7  2  0
  7  8  1  0
  8  9  2  0
  9 10  1  0
 10 11  2  0
 11 12  1  0
 12 13  2  0
 13 14  1  0
  1 15  1  0
 15 16  2  0
 16 17  1  0
 17 18  2  0
 18 19  1  0
 19 20  2  0
 19 21  1  0
 21 22  1  0
 22 23  1  0
 23 24  2  0
 24 25  1  0
 25 26  1  0
 21 27  1  0
 13  4  1  0
 24 15  1  0
 12  7  1  0
 23 18  1  0
  1 28  1  0
  8 29  1  0
  9 30  1  0
 10 31  1  0
 11 32  1  0
 14 33  1  0
 14 34  1  0
 17 35  1  0
 22 36  1  0
 22 37  1  0
 26 38  1  0
 26 39  1  0
 26 40  1  0
 27 41  1  0
 27 42  1  0
 27 43  1  0
M  END
$$$$
