confid_0
     RDKit          3D

 41 45  0  0  0  0  0  0  0  0999 V2000
   24.6900   26.1200   35.5300 N   0  0  0  0  0  0  0  0  0  0  0  0
   25.6600   25.6700   34.6600 C   0  0  0  0  0  0  0  0  0  0  0  0
   25.2400   25.0100   33.7200 O   0  0  0  0  0  0  0  0  0  0  0  0
   27.0300   26.2200   34.8800 C   0  0  0  0  0  0  0  0  0  0  0  0
   27.3500   26.7300   36.0700 N   0  0  0  0  0  0  0  0  0  0  0  0
   28.5700   27.1800   36.3300 N   0  0  0  0  0  0  0  0  0  0  0  0
   29.5300   27.1100   35.3900 C   0  0  0  0  0  0  0  0  0  0  0  0
   30.8300   27.5700   35.6500 C   0  0  0  0  0  0  0  0  0  0  0  0
   31.8500   27.5400   34.6900 C   0  0  0  0  0  0  0  0  0  0  0  0
   31.5100   27.1200   33.4000 C   0  0  0  0  0  0  0  0  0  0  0  0
   30.2200   26.6300   33.1100 C   0  0  0  0  0  0  0  0  0  0  0  0
   29.2400   26.6600   34.1000 C   0  0  0  0  0  0  0  0  0  0  0  0
   27.9300   26.2600   33.8100 C   0  0  0  0  0  0  0  0  0  0  0  0
   27.5200   25.7100   32.6100 N   0  0  0  0  0  0  0  0  0  0  0  0
   23.4612   25.4211   35.8145 C   0  0  0  0  0  0  0  0  0  0  0  0
   23.3550   24.1649   35.4770 N   0  0  0  0  0  0  0  0  0  0  0  0
   22.2568   23.2580   35.6323 C   0  0  0  0  0  0  0  0  0  0  0  0
   21.0200   23.5898   35.2884 C   0  0  0  0  0  0  0  0  0  0  0  0
   19.7294   22.9031   34.9536 C   0  0  0  0  0  0  0  0  0  0  0  0
   19.0747   24.0621   34.5484 O   0  0  0  0  0  0  0  0  0  0  0  0
   20.2161   24.7882   34.8824 C   0  0  0  0  0  0  0  0  0  0  0  0
   19.9160   25.7227   36.0579 C   0  0  0  0  0  0  0  0  0  0  0  0
   21.1381   26.2395   36.7468 C   0  0  0  0  0  0  0  0  0  0  0  0
   22.4576   26.1178   36.6490 C   0  0  0  0  0  0  0  0  0  0  0  0
   22.5919   27.0639   37.7455 C   0  0  0  0  0  0  0  0  0  0  0  0
   23.6938   27.6433   38.4629 C   0  0  0  0  0  0  0  0  0  0  0  0
   24.5821   28.1078   39.0405 N   0  0  0  0  0  0  0  0  0  0  0  0
   21.3066   27.1531   37.8314 N   0  0  0  0  0  0  0  0  0  0  0  0
   24.8274   27.0526   35.9803 H   0  0  0  0  0  0  0  0  0  0  0  0
   31.0673   27.9416   36.6393 H   0  0  0  0  0  0  0  0  0  0  0  0
   32.8482   27.8885   34.9211 H   0  0  0  0  0  0  0  0  0  0  0  0
   32.2639   27.1262   32.6236 H   0  0  0  0  0  0  0  0  0  0  0  0
   30.0100   26.3035   32.1005 H   0  0  0  0  0  0  0  0  0  0  0  0
   26.6934   26.1019   32.1061 H   0  0  0  0  0  0  0  0  0  0  0  0
   28.1322   25.0452   32.0881 H   0  0  0  0  0  0  0  0  0  0  0  0
   22.4775   22.2067   35.7580 H   0  0  0  0  0  0  0  0  0  0  0  0
   19.8424   22.1887   34.1089 H   0  0  0  0  0  0  0  0  0  0  0  0
   19.2476   22.4531   35.8500 H   0  0  0  0  0  0  0  0  0  0  0  0
   20.6477   25.3120   33.9996 H   0  0  0  0  0  0  0  0  0  0  0  0
   19.2951   25.1952   36.8148 H   0  0  0  0  0  0  0  0  0  0  0  0
   19.3294   26.5879   35.6829 H   0  0  0  0  0  0  0  0  0  0  0  0
  1  2  1  0
  2  3  2  0
  2  4  1  0
  4  5  2  0
  5  6  1  0
  6  7  2  0
  7  8  1  0
  8  9  2  0
  9 10  1  0
 10 11  2  0
 11 12  1  0
 12 13  2  0
 13 14  1  0
  1 15  1  0
 15 16  2  0
 16 17  1  0
 17 18  2  0
 18 19  1  0
 19 20  1  0
 20 21  1  0
 21 22  1  0
 22 23  1  0
 23 24  2  0
 24 25  1  0
 25 26  1  0
 26 27  3  0
 25 28  2  0
 13  4  1  0
 24 15  1  0
 12  7  1  0
 21 18  1  0
 28 23  1  0
  1 29  1  0
  8 30  1  0
  9 31  1  0
 10 32  1  0
 11 33  1  0
 14 34  1  0
 14 35  1  0
 17 36  1  0
 19 37  1  0
 19 38  1  0
 21 39  1  0
 22 40  1  0
 22 41  1  0
M  END
$$$$
confid_1
     RDKit          3D

 41 45  0  0  0  0  0  0  0  0999 V2000
   24.6900   26.1200   35.5300 N   0  0  0  0  0  0  0  0  0  0  0  0
   25.6600   25.6700   34.6600 C   0  0  0  0  0  0  0  0  0  0  0  0
   25.2400   25.0100   33.7200 O   0  0  0  0  0  0  0  0  0  0  0  0
   27.0300   26.2200   34.8800 C   0  0  0  0  0  0  0  0  0  0  0  0
   27.3500   26.7300   36.0700 N   0  0  0  0  0  0  0  0  0  0  0  0
   28.5700   27.1800   36.3300 N   0  0  0  0  0  0  0  0  0  0  0  0
   29.5300   27.1100   35.3900 C   0  0  0  0  0  0  0  0  0  0  0  0
   30.8300   27.5700   35.6500 C   0  0  0  0  0  0  0  0  0  0  0  0
   31.8500   27.5400   34.6900 C   0  0  0  0  0  0  0  0  0  0  0  0
   31.5100   27.1200   33.4000 C   0  0  0  0  0  0  0  0  0  0  0  0
   30.2200   26.6300   33.1100 C   0  0  0  0  0  0  0  0  0  0  0  0
   29.2400   26.6600   34.1000 C   0  0  0  0  0  0  0  0  0  0  0  0
   27.9300   26.2600   33.8100 C   0  0  0  0  0  0  0  0  0  0  0  0
   27.5200   25.7100   32.6100 N   0  0  0  0  0  0  0  0  0  0  0  0
   23.3377   26.4521   35.1531 C   0  0  0  0  0  0  0  0  0  0  0  0
   23.0445   26.5654   33.8863 N   0  0  0  0  0  0  0  0  0  0  0  0
   21.8006   26.8713   33.2451 C   0  0  0  0  0  0  0  0  0  0  0  0
   20.6686   26.2709   33.5846 C   0  0  0  0  0  0  0  0  0  0  0  0
   19.3128   26.0246   32.9928 C   0  0  0  0  0  0  0  0  0  0  0  0
   18.8901   25.1688   34.0050 O   0  0  0  0  0  0  0  0  0  0  0  0
   20.1066   25.3795   34.6503 C   0  0  0  0  0  0  0  0  0  0  0  0
   19.8762   26.1203   35.9695 C   0  0  0  0  0  0  0  0  0  0  0  0
   21.1184   26.7131   36.5518 C   0  0  0  0  0  0  0  0  0  0  0  0
   22.4039   26.8347   36.2363 C   0  0  0  0  0  0  0  0  0  0  0  0
   22.6162   27.5079   37.5088 C   0  0  0  0  0  0  0  0  0  0  0  0
   23.7460   28.0907   38.1788 C   0  0  0  0  0  0  0  0  0  0  0  0
   24.6567   28.5593   38.7171 N   0  0  0  0  0  0  0  0  0  0  0  0
   21.3589   27.3987   37.7811 N   0  0  0  0  0  0  0  0  0  0  0  0
   24.9433   26.2037   36.5398 H   0  0  0  0  0  0  0  0  0  0  0  0
   31.0672   27.9417   36.6393 H   0  0  0  0  0  0  0  0  0  0  0  0
   32.8482   27.8886   34.9211 H   0  0  0  0  0  0  0  0  0  0  0  0
   32.2640   27.1263   32.6235 H   0  0  0  0  0  0  0  0  0  0  0  0
   30.0101   26.3034   32.1004 H   0  0  0  0  0  0  0  0  0  0  0  0
   26.6932   26.1019   32.1061 H   0  0  0  0  0  0  0  0  0  0  0  0
   28.1317   25.0439   32.0889 H   0  0  0  0  0  0  0  0  0  0  0  0
   21.8314   27.3773   32.2898 H   0  0  0  0  0  0  0  0  0  0  0  0
   18.6964   26.9500   32.9548 H   0  0  0  0  0  0  0  0  0  0  0  0
   19.3734   25.4957   32.0163 H   0  0  0  0  0  0  0  0  0  0  0  0
   20.6830   24.4345   34.7674 H   0  0  0  0  0  0  0  0  0  0  0  0
   19.4449   25.4110   36.7068 H   0  0  0  0  0  0  0  0  0  0  0  0
   19.1418   26.9418   35.8216 H   0  0  0  0  0  0  0  0  0  0  0  0
  1  2  1  0
  2  3  2  0
  2  4  1  0
  4  5  2  0
  5  6  1  0
  6  7  2  0
  7  8  1  0
  8  9  2  0
  9 10  1  0
 10 11  2  0
 11 12  1  0
 12 13  2  0
 13 14  1  0
  1 15  1  0
 15 16  2  0
 16 17  1  0
 17 18  2  0
 18 19  1  0
 19 20  1  0
 20 21  1  0
 21 22  1  0
 22 23  1  0
 23 24  2  0
 24 25  1  0
 25 26  1  0
 26 27  3  0
 25 28  2  0
 13  4  1  0
 24 15  1  0
 12  7  1  0
 21 18  1  0
 28 23  1  0
  1 29  1  0
  8 30  1  0
  9 31  1  0
 10 32  1  0
 11 33  1  0
 14 34  1  0
 14 35  1  0
 17 36  1  0
 19 37  1  0
 19 38  1  0
 21 39  1  0
 22 40  1  0
 22 41  1  0
M  END
$$$$
confid_2
     RDKit          3D

 41 45  0  0  0  0  0  0  0  0999 V2000
   24.6900   26.1200   35.5300 N   0  0  0  0  0  0  0  0  0  0  0  0
   25.6600   25.6700   34.6600 C   0  0  0  0  0  0  0  0  0  0  0  0
   25.2400   25.0100   33.7200 O   0  0  0  0  0  0  0  0  0  0  0  0
   27.0300   26.2200   34.8800 C   0  0  0  0  0  0  0  0  0  0  0  0
   27.3500   26.7300   36.0700 N   0  0  0  0  0  0  0  0  0  0  0  0
   28.5700   27.1800   36.3300 N   0  0  0  0  0  0  0  0  0  0  0  0
   29.5300   27.1100   35.3900 C   0  0  0  0  0  0  0  0  0  0  0  0
   30.8300   27.5700   35.6500 C   0  0  0  0  0  0  0  0  0  0  0  0
   31.8500   27.5400   34.6900 C   0  0  0  0  0  0  0  0  0  0  0  0
   31.5100   27.1200   33.4000 C   0  0  0  0  0  0  0  0  0  0  0  0
   30.2200   26.6300   33.1100 C   0  0  0  0  0  0  0  0  0  0  0  0
   29.2400   26.6600   34.1000 C   0  0  0  0  0  0  0  0  0  0  0  0
   27.9300   26.2600   33.8100 C   0  0  0  0  0  0  0  0  0  0  0  0
   27.5200   25.7100   32.6100 N   0  0  0  0  0  0  0  0  0  0  0  0
   23.4683   25.4189   35.8380 C   0  0  0  0  0  0  0  0  0  0  0  0
   23.3080   24.1979   35.4048 N   0  0  0  0  0  0  0  0  0  0  0  0
   22.2170   23.2845   35.5737 C   0  0  0  0  0  0  0  0  0  0  0  0
   21.6691   23.0517   36.7571 C   0  0  0  0  0  0  0  0  0  0  0  0
   20.8246   21.9975   37.4086 C   0  0  0  0  0  0  0  0  0  0  0  0
   20.9256   22.5338   38.6891 O   0  0  0  0  0  0  0  0  0  0  0  0
   21.6742   23.5818   38.1581 C   0  0  0  0  0  0  0  0  0  0  0  0
   20.8994   24.8954   38.2825 C   0  0  0  0  0  0  0  0  0  0  0  0
   21.4660   26.0054   37.4569 C   0  0  0  0  0  0  0  0  0  0  0  0
   22.4161   26.1828   36.5441 C   0  0  0  0  0  0  0  0  0  0  0  0
   22.0698   27.5958   36.5079 C   0  0  0  0  0  0  0  0  0  0  0  0
   22.5277   28.7385   35.7672 C   0  0  0  0  0  0  0  0  0  0  0  0
   22.8908   29.6574   35.1660 N   0  0  0  0  0  0  0  0  0  0  0  0
   21.1451   27.3961   37.3852 N   0  0  0  0  0  0  0  0  0  0  0  0
   24.8495   27.0255   36.0277 H   0  0  0  0  0  0  0  0  0  0  0  0
   31.0672   27.9415   36.6394 H   0  0  0  0  0  0  0  0  0  0  0  0
   32.8483   27.8884   34.9211 H   0  0  0  0  0  0  0  0  0  0  0  0
   32.2640   27.1261   32.6235 H   0  0  0  0  0  0  0  0  0  0  0  0
   30.0102   26.3030   32.1005 H   0  0  0  0  0  0  0  0  0  0  0  0
   28.1324   25.0450   32.0881 H   0  0  0  0  0  0  0  0  0  0  0  0
   26.6928   26.1013   32.1064 H   0  0  0  0  0  0  0  0  0  0  0  0
   22.0272   22.5675   34.7878 H   0  0  0  0  0  0  0  0  0  0  0  0
   19.7757   22.0131   37.0366 H   0  0  0  0  0  0  0  0  0  0  0  0
   21.2972   20.9917   37.3532 H   0  0  0  0  0  0  0  0  0  0  0  0
   22.6970   23.6277   38.5943 H   0  0  0  0  0  0  0  0  0  0  0  0
   20.9045   25.2098   39.3471 H   0  0  0  0  0  0  0  0  0  0  0  0
   19.8398   24.7462   37.9800 H   0  0  0  0  0  0  0  0  0  0  0  0
  1  2  1  0
  2  3  2  0
  2  4  1  0
  4  5  2  0
  5  6  1  0
  6  7  2  0
  7  8  1  0
  8  9  2  0
  9 10  1  0
 10 11  2  0
 11 12  1  0
 12 13  2  0
 13 14  1  0
  1 15  1  0
 15 16  2  0
 16 17  1  0
 17 18  2  0
 18 19  1  0
 19 20  1  0
 20 21  1  0
 21 22  1  0
 22 23  1  0
 23 24  2  0
 24 25  1  0
 25 26  1  0
 26 27  3  0
 25 28  2  0
 13  4  1  0
 24 15  1  0
 12  7  1  0
 21 18  1  0
 28 23  1  0
  1 29  1  0
  8 30  1  0
  9 31  1  0
 10 32  1  0
 11 33  1  0
 14 34  1  0
 14 35  1  0
 17 36  1  0
 19 37  1  0
 19 38  1  0
 21 39  1  0
 22 40  1  0
 22 41  1  0
M  END
$$$$
confid_3
     RDKit          3D

 41 45  0  0  0  0  0  0  0  0999 V2000
   24.6900   26.1200   35.5300 N   0  0  0  0  0  0  0  0  0  0  0  0
   25.6600   25.6700   34.6600 C   0  0  0  0  0  0  0  0  0  0  0  0
   25.2400   25.0100   33.7200 O   0  0  0  0  0  0  0  0  0  0  0  0
   27.0300   26.2200   34.8800 C   0  0  0  0  0  0  0  0  0  0  0  0
   27.3500   26.7300   36.0700 N   0  0  0  0  0  0  0  0  0  0  0  0
   28.5700   27.1800   36.3300 N   0  0  0  0  0  0  0  0  0  0  0  0
   29.5300   27.1100   35.3900 C   0  0  0  0  0  0  0  0  0  0  0  0
   30.8300   27.5700   35.6500 C   0  0  0  0  0  0  0  0  0  0  0  0
   31.8500   27.5400   34.6900 C   0  0  0  0  0  0  0  0  0  0  0  0
   31.5100   27.1200   33.4000 C   0  0  0  0  0  0  0  0  0  0  0  0
   30.2200   26.6300   33.1100 C   0  0  0  0  0  0  0  0  0  0  0  0
   29.2400   26.6600   34.1000 C   0  0  0  0  0  0  0  0  0  0  0  0
   27.9300   26.2600   33.8100 C   0  0  0  0  0  0  0  0  0  0  0  0
   27.5200   25.7100   32.6100 N   0  0  0  0  0  0  0  0  0  0  0  0
   23.4575   25.4186   35.7853 C   0  0  0  0  0  0  0  0  0  0  0  0
   23.4531   24.1177   35.6714 N   0  0  0  0  0  0  0  0  0  0  0  0
   22.3977   23.1578   35.8377 C   0  0  0  0  0  0  0  0  0  0  0  0
   21.1971   23.3288   35.3009 C   0  0  0  0  0  0  0  0  0  0  0  0
   20.0053   22.4936   34.9370 C   0  0  0  0  0  0  0  0  0  0  0  0
   19.3145   23.5279   34.3087 O   0  0  0  0  0  0  0  0  0  0  0  0
   20.3581   24.3868   34.6476 C   0  0  0  0  0  0  0  0  0  0  0  0
   19.8742   25.4303   35.6570 C   0  0  0  0  0  0  0  0  0  0  0  0
   20.9820   26.2154   36.2786 C   0  0  0  0  0  0  0  0  0  0  0  0
   22.3156   26.2041   36.3207 C   0  0  0  0  0  0  0  0  0  0  0  0
   22.2601   27.4168   37.1231 C   0  0  0  0  0  0  0  0  0  0  0  0
   23.2270   28.2847   37.7298 C   0  0  0  0  0  0  0  0  0  0  0  0
   24.0085   28.9863   38.2153 N   0  0  0  0  0  0  0  0  0  0  0  0
   20.9672   27.3954   37.0782 N   0  0  0  0  0  0  0  0  0  0  0  0
   24.8121   27.0695   35.9487 H   0  0  0  0  0  0  0  0  0  0  0  0
   31.0676   27.9410   36.6395 H   0  0  0  0  0  0  0  0  0  0  0  0
   32.8485   27.8874   34.9212 H   0  0  0  0  0  0  0  0  0  0  0  0
   32.2658   27.1205   32.6252 H   0  0  0  0  0  0  0  0  0  0  0  0
   30.0124   26.2783   32.1081 H   0  0  0  0  0  0  0  0  0  0  0  0
   27.3367   24.6843   32.5432 H   0  0  0  0  0  0  0  0  0  0  0  0
   27.7127   26.2150   31.7170 H   0  0  0  0  0  0  0  0  0  0  0  0
   22.6680   22.1578   36.1504 H   0  0  0  0  0  0  0  0  0  0  0  0
   20.2689   21.6883   34.2151 H   0  0  0  0  0  0  0  0  0  0  0  0
   19.4610   22.1198   35.8370 H   0  0  0  0  0  0  0  0  0  0  0  0
   20.8412   24.8260   33.7422 H   0  0  0  0  0  0  0  0  0  0  0  0
   19.2984   24.9385   36.4745 H   0  0  0  0  0  0  0  0  0  0  0  0
   19.1936   26.1371   35.1367 H   0  0  0  0  0  0  0  0  0  0  0  0
  1  2  1  0
  2  3  2  0
  2  4  1  0
  4  5  2  0
  5  6  1  0
  6  7  2  0
  7  8  1  0
  8  9  2  0
  9 10  1  0
 10 11  2  0
 11 12  1  0
 12 13  2  0
 13 14  1  0
  1 15  1  0
 15 16  2  0
 16 17  1  0
 17 18  2  0
 18 19  1  0
 19 20  1  0
 20 21  1  0
 21 22  1  0
 22 23  1  0
 23 24  2  0
 24 25  1  0
 25 26  1  0
 26 27  3  0
 25 28  2  0
 13  4  1  0
 24 15  1  0
 12  7  1  0
 21 18  1  0
 28 23  1  0
  1 29  1  0
  8 30  1  0
  9 31  1  0
 10 32  1  0
 11 33  1  0
 14 34  1  0
 14 35  1  0
 17 36  1  0
 19 37  1  0
 19 38  1  0
 21 39  1  0
 22 40  1  0
 22 41  1  0
M  END
$$$$
confid_4
     RDKit          3D

 41 45  0  0  0  0  0  0  0  0999 V2000
   24.6900   26.1200   35.5300 N   0  0  0  0  0  0  0  0  0  0  0  0
   25.6600   25.6700   34.6600 C   0  0  0  0  0  0  0  0  0  0  0  0
   25.2400   25.0100   33.7200 O   0  0  0  0  0  0  0  0  0  0  0  0
   27.0300   26.2200   34.8800 C   0  0  0  0  0  0  0  0  0  0  0  0
   27.3500   26.7300   36.0700 N   0  0  0  0  0  0  0  0  0  0  0  0
   28.5700   27.1800   36.3300 N   0  0  0  0  0  0  0  0  0  0  0  0
   29.5300   27.1100   35.3900 C   0  0  0  0  0  0  0  0  0  0  0  0
   30.8300   27.5700   35.6500 C   0  0  0  0  0  0  0  0  0  0  0  0
   31.8500   27.5400   34.6900 C   0  0  0  0  0  0  0  0  0  0  0  0
   31.5100   27.1200   33.4000 C   0  0  0  0  0  0  0  0  0  0  0  0
   30.2200   26.6300   33.1100 C   0  0  0  0  0  0  0  0  0  0  0  0
   29.2400   26.6600   34.1000 C   0  0  0  0  0  0  0  0  0  0  0  0
   27.9300   26.2600   33.8100 C   0  0  0  0  0  0  0  0  0  0  0  0
   27.5200   25.7100   32.6100 N   0  0  0  0  0  0  0  0  0  0  0  0
   23.3854   25.5283   35.6336 C   0  0  0  0  0  0  0  0  0  0  0  0
   22.3718   26.3271   35.4304 N   0  0  0  0  0  0  0  0  0  0  0  0
   20.9380   26.2333   35.4203 C   0  0  0  0  0  0  0  0  0  0  0  0
   20.2063   25.2955   36.0059 C   0  0  0  0  0  0  0  0  0  0  0  0
   18.7395   25.0109   36.1636 C   0  0  0  0  0  0  0  0  0  0  0  0
   18.9147   23.8185   36.8542 O   0  0  0  0  0  0  0  0  0  0  0  0
   20.2897   24.0138   36.7714 C   0  0  0  0  0  0  0  0  0  0  0  0
   20.9560   22.9299   35.9385 C   0  0  0  0  0  0  0  0  0  0  0  0
   22.4262   23.0874   36.0401 C   0  0  0  0  0  0  0  0  0  0  0  0
   23.3135   24.0707   35.9339 C   0  0  0  0  0  0  0  0  0  0  0  0
   24.3530   23.1097   36.2986 C   0  0  0  0  0  0  0  0  0  0  0  0
   25.7719   23.1604   36.5223 C   0  0  0  0  0  0  0  0  0  0  0  0
   26.9142   23.2001   36.7032 N   0  0  0  0  0  0  0  0  0  0  0  0
   23.4714   22.1698   36.3543 N   0  0  0  0  0  0  0  0  0  0  0  0
   24.8224   27.0443   36.0010 H   0  0  0  0  0  0  0  0  0  0  0  0
   31.0672   27.9417   36.6393 H   0  0  0  0  0  0  0  0  0  0  0  0
   32.8482   27.8885   34.9211 H   0  0  0  0  0  0  0  0  0  0  0  0
   32.2640   27.1262   32.6235 H   0  0  0  0  0  0  0  0  0  0  0  0
   30.0100   26.3033   32.1004 H   0  0  0  0  0  0  0  0  0  0  0  0
   26.6935   26.1021   32.1058 H   0  0  0  0  0  0  0  0  0  0  0  0
   28.1313   25.0430   32.0896 H   0  0  0  0  0  0  0  0  0  0  0  0
   20.3989   27.0516   34.9626 H   0  0  0  0  0  0  0  0  0  0  0  0
   18.2388   24.8420   35.1846 H   0  0  0  0  0  0  0  0  0  0  0  0
   18.2291   25.7743   36.7916 H   0  0  0  0  0  0  0  0  0  0  0  0
   20.7379   24.1430   37.7839 H   0  0  0  0  0  0  0  0  0  0  0  0
   20.6780   21.9340   36.3440 H   0  0  0  0  0  0  0  0  0  0  0  0
   20.6427   22.9758   34.8723 H   0  0  0  0  0  0  0  0  0  0  0  0
  1  2  1  0
  2  3  2  0
  2  4  1  0
  4  5  2  0
  5  6  1  0
  6  7  2  0
  7  8  1  0
  8  9  2  0
  9 10  1  0
 10 11  2  0
 11 12  1  0
 12 13  2  0
 13 14  1  0
  1 15  1  0
 15 16  2  0
 16 17  1  0
 17 18  2  0
 18 19  1  0
 19 20  1  0
 20 21  1  0
 21 22  1  0
 22 23  1  0
 23 24  2  0
 24 25  1  0
 25 26  1  0
 26 27  3  0
 25 28  2  0
 13  4  1  0
 24 15  1  0
 12  7  1  0
 21 18  1  0
 28 23  1  0
  1 29  1  0
  8 30  1  0
  9 31  1  0
 10 32  1  0
 11 33  1  0
 14 34  1  0
 14 35  1  0
 17 36  1  0
 19 37  1  0
 19 38  1  0
 21 39  1  0
 22 40  1  0
 22 41  1  0
M  END
$$$$
confid_5
     RDKit          3D

 41 45  0  0  0  0  0  0  0  0999 V2000
   24.6900   26.1200   35.5300 N   0  0  0  0  0  0  0  0  0  0  0  0
   25.6600   25.6700   34.6600 C   0  0  0  0  0  0  0  0  0  0  0  0
   25.2400   25.0100   33.7200 O   0  0  0  0  0  0  0  0  0  0  0  0
   27.0300   26.2200   34.8800 C   0  0  0  0  0  0  0  0  0  0  0  0
   27.3500   26.7300   36.0700 N   0  0  0  0  0  0  0  0  0  0  0  0
   28.5700   27.1800   36.3300 N   0  0  0  0  0  0  0  0  0  0  0  0
   29.5300   27.1100   35.3900 C   0  0  0  0  0  0  0  0  0  0  0  0
   30.8300   27.5700   35.6500 C   0  0  0  0  0  0  0  0  0  0  0  0
   31.8500   27.5400   34.6900 C   0  0  0  0  0  0  0  0  0  0  0  0
   31.5100   27.1200   33.4000 C   0  0  0  0  0  0  0  0  0  0  0  0
   30.2200   26.6300   33.1100 C   0  0  0  0  0  0  0  0  0  0  0  0
   29.2400   26.6600   34.1000 C   0  0  0  0  0  0  0  0  0  0  0  0
   27.9300   26.2600   33.8100 C   0  0  0  0  0  0  0  0  0  0  0  0
   27.5200   25.7100   32.6100 N   0  0  0  0  0  0  0  0  0  0  0  0
   23.4803   25.3993   35.8247 C   0  0  0  0  0  0  0  0  0  0  0  0
   22.4580   26.0879   36.2482 N   0  0  0  0  0  0  0  0  0  0  0  0
   21.1404   25.6569   36.6107 C   0  0  0  0  0  0  0  0  0  0  0  0
   20.4392   24.8257   35.8517 C   0  0  0  0  0  0  0  0  0  0  0  0
   19.0064   24.4261   35.6607 C   0  0  0  0  0  0  0  0  0  0  0  0
   19.2449   23.6459   34.5337 O   0  0  0  0  0  0  0  0  0  0  0  0
   20.6035   23.9243   34.6648 C   0  0  0  0  0  0  0  0  0  0  0  0
   21.3686   22.6418   35.0022 C   0  0  0  0  0  0  0  0  0  0  0  0
   22.7421   22.8837   35.5390 C   0  0  0  0  0  0  0  0  0  0  0  0
   23.5191   23.9173   35.8439 C   0  0  0  0  0  0  0  0  0  0  0  0
   24.5696   22.9774   36.2042 C   0  0  0  0  0  0  0  0  0  0  0  0
   25.9134   23.0924   36.7000 C   0  0  0  0  0  0  0  0  0  0  0  0
   26.9956   23.1871   37.0982 N   0  0  0  0  0  0  0  0  0  0  0  0
   23.7889   21.9893   35.9185 N   0  0  0  0  0  0  0  0  0  0  0  0
   24.7916   27.0752   35.9445 H   0  0  0  0  0  0  0  0  0  0  0  0
   31.0672   27.9417   36.6393 H   0  0  0  0  0  0  0  0  0  0  0  0
   32.8482   27.8885   34.9211 H   0  0  0  0  0  0  0  0  0  0  0  0
   32.2640   27.1262   32.6235 H   0  0  0  0  0  0  0  0  0  0  0  0
   30.0100   26.3033   32.1004 H   0  0  0  0  0  0  0  0  0  0  0  0
   26.6935   26.1021   32.1058 H   0  0  0  0  0  0  0  0  0  0  0  0
   28.1313   25.0430   32.0896 H   0  0  0  0  0  0  0  0  0  0  0  0
   20.6029   26.2312   37.3529 H   0  0  0  0  0  0  0  0  0  0  0  0
   18.3589   25.2973   35.4186 H   0  0  0  0  0  0  0  0  0  0  0  0
   18.6240   23.8153   36.5083 H   0  0  0  0  0  0  0  0  0  0  0  0
   21.0052   24.4577   33.7742 H   0  0  0  0  0  0  0  0  0  0  0  0
   21.4521   22.0232   34.0840 H   0  0  0  0  0  0  0  0  0  0  0  0
   20.8060   22.0510   35.7576 H   0  0  0  0  0  0  0  0  0  0  0  0
  1  2  1  0
  2  3  2  0
  2  4  1  0
  4  5  2  0
  5  6  1  0
  6  7  2  0
  7  8  1  0
  8  9  2  0
  9 10  1  0
 10 11  2  0
 11 12  1  0
 12 13  2  0
 13 14  1  0
  1 15  1  0
 15 16  2  0
 16 17  1  0
 17 18  2  0
 18 19  1  0
 19 20  1  0
 20 21  1  0
 21 22  1  0
 22 23  1  0
 23 24  2  0
 24 25  1  0
 25 26  1  0
 26 27  3  0
 25 28  2  0
 13  4  1  0
 24 15  1  0
 12  7  1  0
 21 18  1  0
 28 23  1  0
  1 29  1  0
  8 30  1  0
  9 31  1  0
 10 32  1  0
 11 33  1  0
 14 34  1  0
 14 35  1  0
 17 36  1  0
 19 37  1  0
 19 38  1  0
 21 39  1  0
 22 40  1  0
 22 41  1  0
M  END
$$$$
