confid_0
     RDKit          3D

 40 43  0  0  0  0  0  0  0  0999 V2000
   24.2000   26.2400   35.6900 N   0  0  0  0  0  0  0  0  0  0  0  0
   24.8500   26.2800   34.4800 C   0  0  0  0  0  0  0  0  0  0  0  0
   24.3100   25.7400   33.5400 O   0  0  0  0  0  0  0  0  0  0  0  0
   26.1800   26.9700   34.4700 C   0  0  0  0  0  0  0  0  0  0  0  0
   26.6500   27.6000   35.5500 N   0  0  0  0  0  0  0  0  0  0  0  0
   27.7900   28.2700   35.6200 N   0  0  0  0  0  0  0  0  0  0  0  0
   28.5400   28.3000   34.5100 C   0  0  0  0  0  0  0  0  0  0  0  0
   29.7700   28.9400   34.5600 C   0  0  0  0  0  0  0  0  0  0  0  0
   30.7000   28.8900   33.5000 C   0  0  0  0  0  0  0  0  0  0  0  0
   30.3700   28.1400   32.3700 C   0  0  0  0  0  0  0  0  0  0  0  0
   29.1200   27.5200   32.2800 C   0  0  0  0  0  0  0  0  0  0  0  0
   28.2100   27.6100   33.3300 C   0  0  0  0  0  0  0  0  0  0  0  0
   26.9700   26.9700   33.3100 C   0  0  0  0  0  0  0  0  0  0  0  0
   26.5300   26.2400   32.2200 N   0  0  0  0  0  0  0  0  0  0  0  0
   30.1452   29.6721   35.7402 N   0  0  0  0  0  0  0  0  0  0  0  0
   31.1247   29.0881   36.6617 C   0  0  0  0  0  0  0  0  0  0  0  0
   31.9332   30.1866   37.3554 C   0  0  0  0  0  0  0  0  0  0  0  0
   31.0226   31.2035   37.9988 C   0  0  0  0  0  0  0  0  0  0  0  0
   31.4313   31.8507   39.1732 C   0  0  0  0  0  0  0  0  0  0  0  0
   30.6273   32.8288   39.7546 C   0  0  0  0  0  0  0  0  0  0  0  0
   29.4111   33.1775   39.1682 C   0  0  0  0  0  0  0  0  0  0  0  0
   28.9888   32.5565   37.9837 C   0  0  0  0  0  0  0  0  0  0  0  0
   27.4173   33.0234   37.3332 Cl  0  0  0  0  0  0  0  0  0  0  0  0
   29.8057   31.5677   37.3775 C   0  0  0  0  0  0  0  0  0  0  0  0
   29.4396   30.8711   36.1159 C   0  0  0  0  0  0  0  0  0  0  0  0
   28.5548   31.3406   35.3501 O   0  0  0  0  0  0  0  0  0  0  0  0
   28.6386   34.1240   39.7589 F   0  0  0  0  0  0  0  0  0  0  0  0
   23.2681   25.7737   35.7694 H   0  0  0  0  0  0  0  0  0  0  0  0
   24.5987   26.6540   36.5617 H   0  0  0  0  0  0  0  0  0  0  0  0
   31.6564   29.3931   33.5682 H   0  0  0  0  0  0  0  0  0  0  0  0
   31.0710   28.0657   31.5487 H   0  0  0  0  0  0  0  0  0  0  0  0
   28.8855   26.9766   31.3745 H   0  0  0  0  0  0  0  0  0  0  0  0
   27.1525   25.5358   31.7655 H   0  0  0  0  0  0  0  0  0  0  0  0
   25.6756   26.5399   31.6999 H   0  0  0  0  0  0  0  0  0  0  0  0
   30.5897   28.4801   37.4234 H   0  0  0  0  0  0  0  0  0  0  0  0
   31.8245   28.4192   36.1144 H   0  0  0  0  0  0  0  0  0  0  0  0
   32.5948   29.7155   38.1149 H   0  0  0  0  0  0  0  0  0  0  0  0
   32.5738   30.7015   36.6073 H   0  0  0  0  0  0  0  0  0  0  0  0
   32.3760   31.5985   39.6390 H   0  0  0  0  0  0  0  0  0  0  0  0
   30.9485   33.3180   40.6652 H   0  0  0  0  0  0  0  0  0  0  0  0
  1  2  1  0
  2  3  2  0
  2  4  1  0
  4  5  2  0
  5  6  1  0
  6  7  2  0
  7  8  1  0
  8  9  2  0
  9 10  1  0
 10 11  2  0
 11 12  1  0
 12 13  2  0
 13 14  1  0
  8 15  1  0
 15 16  1  0
 16 17  1  0
 17 18  1  0
 18 19  2  0
 19 20  1  0
 20 21  2  0
 21 22  1  0
 22 23  1  0
 22 24  2  0
 24 25  1  0
 25 26  2  0
 21 27  1  0
 13  4  1  0
 25 15  1  0
 12  7  1  0
 24 18  1  0
  1 28  1  0
  1 29  1  0
  9 30  1  0
 10 31  1  0
 11 32  1  0
 14 33  1  0
 14 34  1  0
 16 35  1  0
 16 36  1  0
 17 37  1  0
 17 38  1  0
 19 39  1  0
 20 40  1  0
M  END
$$$$
confid_1
     RDKit          3D

 40 43  0  0  0  0  0  0  0  0999 V2000
   24.2000   26.2400   35.6900 N   0  0  0  0  0  0  0  0  0  0  0  0
   24.8500   26.2800   34.4800 C   0  0  0  0  0  0  0  0  0  0  0  0
   24.3100   25.7400   33.5400 O   0  0  0  0  0  0  0  0  0  0  0  0
   26.1800   26.9700   34.4700 C   0  0  0  0  0  0  0  0  0  0  0  0
   26.6500   27.6000   35.5500 N   0  0  0  0  0  0  0  0  0  0  0  0
   27.7900   28.2700   35.6200 N   0  0  0  0  0  0  0  0  0  0  0  0
   28.5400   28.3000   34.5100 C   0  0  0  0  0  0  0  0  0  0  0  0
   29.7700   28.9400   34.5600 C   0  0  0  0  0  0  0  0  0  0  0  0
   30.7000   28.8900   33.5000 C   0  0  0  0  0  0  0  0  0  0  0  0
   30.3700   28.1400   32.3700 C   0  0  0  0  0  0  0  0  0  0  0  0
   29.1200   27.5200   32.2800 C   0  0  0  0  0  0  0  0  0  0  0  0
   28.2100   27.6100   33.3300 C   0  0  0  0  0  0  0  0  0  0  0  0
   26.9700   26.9700   33.3100 C   0  0  0  0  0  0  0  0  0  0  0  0
   26.5300   26.2400   32.2200 N   0  0  0  0  0  0  0  0  0  0  0  0
   30.1374   29.6751   35.7437 N   0  0  0  0  0  0  0  0  0  0  0  0
   31.3610   29.3199   36.4680 C   0  0  0  0  0  0  0  0  0  0  0  0
   31.1637   29.5204   37.9709 C   0  0  0  0  0  0  0  0  0  0  0  0
   30.6639   30.9123   38.2725 C   0  0  0  0  0  0  0  0  0  0  0  0
   31.0115   31.5157   39.4892 C   0  0  0  0  0  0  0  0  0  0  0  0
   30.5227   32.7785   39.8149 C   0  0  0  0  0  0  0  0  0  0  0  0
   29.6747   33.4506   38.9361 C   0  0  0  0  0  0  0  0  0  0  0  0
   29.2975   32.8616   37.7205 C   0  0  0  0  0  0  0  0  0  0  0  0
   28.2458   33.7984   36.6586 Cl  0  0  0  0  0  0  0  0  0  0  0  0
   29.7830   31.5709   37.3815 C   0  0  0  0  0  0  0  0  0  0  0  0
   29.4233   30.8696   36.1180 C   0  0  0  0  0  0  0  0  0  0  0  0
   28.4918   31.2943   35.3822 O   0  0  0  0  0  0  0  0  0  0  0  0
   29.2178   34.6838   39.2712 F   0  0  0  0  0  0  0  0  0  0  0  0
   24.5988   26.6540   36.5617 H   0  0  0  0  0  0  0  0  0  0  0  0
   23.2681   25.7737   35.7694 H   0  0  0  0  0  0  0  0  0  0  0  0
   31.6553   29.3955   33.5637 H   0  0  0  0  0  0  0  0  0  0  0  0
   31.0706   28.0665   31.5482 H   0  0  0  0  0  0  0  0  0  0  0  0
   28.8854   26.9768   31.3744 H   0  0  0  0  0  0  0  0  0  0  0  0
   27.1525   25.5358   31.7655 H   0  0  0  0  0  0  0  0  0  0  0  0
   25.6756   26.5399   31.6999 H   0  0  0  0  0  0  0  0  0  0  0  0
   32.1981   29.9583   36.1105 H   0  0  0  0  0  0  0  0  0  0  0  0
   31.6268   28.2561   36.2807 H   0  0  0  0  0  0  0  0  0  0  0  0
   30.4209   28.7841   38.3469 H   0  0  0  0  0  0  0  0  0  0  0  0
   32.1318   29.3317   38.4844 H   0  0  0  0  0  0  0  0  0  0  0  0
   31.6620   31.0056   40.1890 H   0  0  0  0  0  0  0  0  0  0  0  0
   30.8027   33.2381   40.7541 H   0  0  0  0  0  0  0  0  0  0  0  0
  1  2  1  0
  2  3  2  0
  2  4  1  0
  4  5  2  0
  5  6  1  0
  6  7  2  0
  7  8  1  0
  8  9  2  0
  9 10  1  0
 10 11  2  0
 11 12  1  0
 12 13  2  0
 13 14  1  0
  8 15  1  0
 15 16  1  0
 16 17  1  0
 17 18  1  0
 18 19  2  0
 19 20  1  0
 20 21  2  0
 21 22  1  0
 22 23  1  0
 22 24  2  0
 24 25  1  0
 25 26  2  0
 21 27  1  0
 13  4  1  0
 25 15  1  0
 12  7  1  0
 24 18  1  0
  1 28  1  0
  1 29  1  0
  9 30  1  0
 10 31  1  0
 11 32  1  0
 14 33  1  0
 14 34  1  0
 16 35  1  0
 16 36  1  0
 17 37  1  0
 17 38  1  0
 19 39  1  0
 20 40  1  0
M  END
$$$$
confid_2
     RDKit          3D

 40 43  0  0  0  0  0  0  0  0999 V2000
   24.2000   26.2400   35.6900 N   0  0  0  0  0  0  0  0  0  0  0  0
   24.8500   26.2800   34.4800 C   0  0  0  0  0  0  0  0  0  0  0  0
   24.3100   25.7400   33.5400 O   0  0  0  0  0  0  0  0  0  0  0  0
   26.1800   26.9700   34.4700 C   0  0  0  0  0  0  0  0  0  0  0  0
   26.6500   27.6000   35.5500 N   0  0  0  0  0  0  0  0  0  0  0  0
   27.7900   28.2700   35.6200 N   0  0  0  0  0  0  0  0  0  0  0  0
   28.5400   28.3000   34.5100 C   0  0  0  0  0  0  0  0  0  0  0  0
   29.7700   28.9400   34.5600 C   0  0  0  0  0  0  0  0  0  0  0  0
   30.7000   28.8900   33.5000 C   0  0  0  0  0  0  0  0  0  0  0  0
   30.3700   28.1400   32.3700 C   0  0  0  0  0  0  0  0  0  0  0  0
   29.1200   27.5200   32.2800 C   0  0  0  0  0  0  0  0  0  0  0  0
   28.2100   27.6100   33.3300 C   0  0  0  0  0  0  0  0  0  0  0  0
   26.9700   26.9700   33.3100 C   0  0  0  0  0  0  0  0  0  0  0  0
   26.5300   26.2400   32.2200 N   0  0  0  0  0  0  0  0  0  0  0  0
   30.1408   29.6863   35.7351 N   0  0  0  0  0  0  0  0  0  0  0  0
   29.3523   30.8540   36.1420 C   0  0  0  0  0  0  0  0  0  0  0  0
   30.2729   31.9638   36.6517 C   0  0  0  0  0  0  0  0  0  0  0  0
   31.1926   31.4491   37.7323 C   0  0  0  0  0  0  0  0  0  0  0  0
   31.6114   32.3187   38.7488 C   0  0  0  0  0  0  0  0  0  0  0  0
   32.4975   31.8808   39.7303 C   0  0  0  0  0  0  0  0  0  0  0  0
   32.9828   30.5741   39.7050 C   0  0  0  0  0  0  0  0  0  0  0  0
   32.5935   29.6901   38.6882 C   0  0  0  0  0  0  0  0  0  0  0  0
   33.2303   28.0465   38.7540 Cl  0  0  0  0  0  0  0  0  0  0  0  0
   31.6979   30.1283   37.6779 C   0  0  0  0  0  0  0  0  0  0  0  0
   31.2434   29.2593   36.5578 C   0  0  0  0  0  0  0  0  0  0  0  0
   31.8235   28.1689   36.3050 O   0  0  0  0  0  0  0  0  0  0  0  0
   33.8371   30.1666   40.6776 F   0  0  0  0  0  0  0  0  0  0  0  0
   24.5991   26.6534   36.5618 H   0  0  0  0  0  0  0  0  0  0  0  0
   23.2684   25.7731   35.7695 H   0  0  0  0  0  0  0  0  0  0  0  0
   31.6554   29.3954   33.5659 H   0  0  0  0  0  0  0  0  0  0  0  0
   31.0730   28.0615   31.5508 H   0  0  0  0  0  0  0  0  0  0  0  0
   28.8951   26.9547   31.3854 H   0  0  0  0  0  0  0  0  0  0  0  0
   26.6265   26.6230   31.2536 H   0  0  0  0  0  0  0  0  0  0  0  0
   26.3241   25.2204   32.3142 H   0  0  0  0  0  0  0  0  0  0  0  0
   28.6463   30.5584   36.9483 H   0  0  0  0  0  0  0  0  0  0  0  0
   28.7607   31.2422   35.2837 H   0  0  0  0  0  0  0  0  0  0  0  0
   29.6452   32.7978   37.0351 H   0  0  0  0  0  0  0  0  0  0  0  0
   30.8881   32.3491   35.8101 H   0  0  0  0  0  0  0  0  0  0  0  0
   31.2513   33.3398   38.7809 H   0  0  0  0  0  0  0  0  0  0  0  0
   32.8091   32.5583   40.5149 H   0  0  0  0  0  0  0  0  0  0  0  0
  1  2  1  0
  2  3  2  0
  2  4  1  0
  4  5  2  0
  5  6  1  0
  6  7  2  0
  7  8  1  0
  8  9  2  0
  9 10  1  0
 10 11  2  0
 11 12  1  0
 12 13  2  0
 13 14  1  0
  8 15  1  0
 15 16  1  0
 16 17  1  0
 17 18  1  0
 18 19  2  0
 19 20  1  0
 20 21  2  0
 21 22  1  0
 22 23  1  0
 22 24  2  0
 24 25  1  0
 25 26  2  0
 21 27  1  0
 13  4  1  0
 25 15  1  0
 12  7  1  0
 24 18  1  0
  1 28  1  0
  1 29  1  0
  9 30  1  0
 10 31  1  0
 11 32  1  0
 14 33  1  0
 14 34  1  0
 16 35  1  0
 16 36  1  0
 17 37  1  0
 17 38  1  0
 19 39  1  0
 20 40  1  0
M  END
$$$$
confid_3
     RDKit          3D

 40 43  0  0  0  0  0  0  0  0999 V2000
   24.2000   26.2400   35.6900 N   0  0  0  0  0  0  0  0  0  0  0  0
   24.8500   26.2800   34.4800 C   0  0  0  0  0  0  0  0  0  0  0  0
   24.3100   25.7400   33.5400 O   0  0  0  0  0  0  0  0  0  0  0  0
   26.1800   26.9700   34.4700 C   0  0  0  0  0  0  0  0  0  0  0  0
   26.6500   27.6000   35.5500 N   0  0  0  0  0  0  0  0  0  0  0  0
   27.7900   28.2700   35.6200 N   0  0  0  0  0  0  0  0  0  0  0  0
   28.5400   28.3000   34.5100 C   0  0  0  0  0  0  0  0  0  0  0  0
   29.7700   28.9400   34.5600 C   0  0  0  0  0  0  0  0  0  0  0  0
   30.7000   28.8900   33.5000 C   0  0  0  0  0  0  0  0  0  0  0  0
   30.3700   28.1400   32.3700 C   0  0  0  0  0  0  0  0  0  0  0  0
   29.1200   27.5200   32.2800 C   0  0  0  0  0  0  0  0  0  0  0  0
   28.2100   27.6100   33.3300 C   0  0  0  0  0  0  0  0  0  0  0  0
   26.9700   26.9700   33.3100 C   0  0  0  0  0  0  0  0  0  0  0  0
   26.5300   26.2400   32.2200 N   0  0  0  0  0  0  0  0  0  0  0  0
   30.1428   29.6583   35.7474 N   0  0  0  0  0  0  0  0  0  0  0  0
   30.7256   28.9242   36.8736 C   0  0  0  0  0  0  0  0  0  0  0  0
   30.3728   29.6082   38.1955 C   0  0  0  0  0  0  0  0  0  0  0  0
   30.7437   31.0711   38.1645 C   0  0  0  0  0  0  0  0  0  0  0  0
   31.1297   31.7075   39.3524 C   0  0  0  0  0  0  0  0  0  0  0  0
   31.4281   33.0681   39.3582 C   0  0  0  0  0  0  0  0  0  0  0  0
   31.3375   33.8114   38.1821 C   0  0  0  0  0  0  0  0  0  0  0  0
   30.9366   33.2018   36.9843 C   0  0  0  0  0  0  0  0  0  0  0  0
   30.8869   34.2081   35.5366 Cl  0  0  0  0  0  0  0  0  0  0  0  0
   30.6203   31.8184   36.9694 C   0  0  0  0  0  0  0  0  0  0  0  0
   30.1747   31.0976   35.7462 C   0  0  0  0  0  0  0  0  0  0  0  0
   29.7857   31.7283   34.7262 O   0  0  0  0  0  0  0  0  0  0  0  0
   31.6435   35.1332   38.2095 F   0  0  0  0  0  0  0  0  0  0  0  0
   24.5989   26.6538   36.5617 H   0  0  0  0  0  0  0  0  0  0  0  0
   23.2681   25.7737   35.7694 H   0  0  0  0  0  0  0  0  0  0  0  0
   31.6592   29.3873   33.5716 H   0  0  0  0  0  0  0  0  0  0  0  0
   31.0739   28.0595   31.5517 H   0  0  0  0  0  0  0  0  0  0  0  0
   28.8953   26.9543   31.3856 H   0  0  0  0  0  0  0  0  0  0  0  0
   26.3242   25.2204   32.3142 H   0  0  0  0  0  0  0  0  0  0  0  0
   26.6264   26.6231   31.2536 H   0  0  0  0  0  0  0  0  0  0  0  0
   31.8302   28.8881   36.7531 H   0  0  0  0  0  0  0  0  0  0  0  0
   30.3450   27.8794   36.8958 H   0  0  0  0  0  0  0  0  0  0  0  0
   30.9059   29.0855   39.0195 H   0  0  0  0  0  0  0  0  0  0  0  0
   29.2798   29.5193   38.3765 H   0  0  0  0  0  0  0  0  0  0  0  0
   31.1982   31.1485   40.2776 H   0  0  0  0  0  0  0  0  0  0  0  0
   31.7317   33.5485   40.2795 H   0  0  0  0  0  0  0  0  0  0  0  0
  1  2  1  0
  2  3  2  0
  2  4  1  0
  4  5  2  0
  5  6  1  0
  6  7  2  0
  7  8  1  0
  8  9  2  0
  9 10  1  0
 10 11  2  0
 11 12  1  0
 12 13  2  0
 13 14  1  0
  8 15  1  0
 15 16  1  0
 16 17  1  0
 17 18  1  0
 18 19  2  0
 19 20  1  0
 20 21  2  0
 21 22  1  0
 22 23  1  0
 22 24  2  0
 24 25  1  0
 25 26  2  0
 21 27  1  0
 13  4  1  0
 25 15  1  0
 12  7  1  0
 24 18  1  0
  1 28  1  0
  1 29  1  0
  9 30  1  0
 10 31  1  0
 11 32  1  0
 14 33  1  0
 14 34  1  0
 16 35  1  0
 16 36  1  0
 17 37  1  0
 17 38  1  0
 19 39  1  0
 20 40  1  0
M  END
$$$$
confid_4
     RDKit          3D

 40 43  0  0  0  0  0  0  0  0999 V2000
   24.2000   26.2400   35.6900 N   0  0  0  0  0  0  0  0  0  0  0  0
   24.8500   26.2800   34.4800 C   0  0  0  0  0  0  0  0  0  0  0  0
   24.3100   25.7400   33.5400 O   0  0  0  0  0  0  0  0  0  0  0  0
   26.1800   26.9700   34.4700 C   0  0  0  0  0  0  0  0  0  0  0  0
   26.6500   27.6000   35.5500 N   0  0  0  0  0  0  0  0  0  0  0  0
   27.7900   28.2700   35.6200 N   0  0  0  0  0  0  0  0  0  0  0  0
   28.5400   28.3000   34.5100 C   0  0  0  0  0  0  0  0  0  0  0  0
   29.7700   28.9400   34.5600 C   0  0  0  0  0  0  0  0  0  0  0  0
   30.7000   28.8900   33.5000 C   0  0  0  0  0  0  0  0  0  0  0  0
   30.3700   28.1400   32.3700 C   0  0  0  0  0  0  0  0  0  0  0  0
   29.1200   27.5200   32.2800 C   0  0  0  0  0  0  0  0  0  0  0  0
   28.2100   27.6100   33.3300 C   0  0  0  0  0  0  0  0  0  0  0  0
   26.9700   26.9700   33.3100 C   0  0  0  0  0  0  0  0  0  0  0  0
   26.5300   26.2400   32.2200 N   0  0  0  0  0  0  0  0  0  0  0  0
   30.1530   29.6646   35.7424 N   0  0  0  0  0  0  0  0  0  0  0  0
   30.4620   28.9401   36.9791 C   0  0  0  0  0  0  0  0  0  0  0  0
   31.6425   29.5956   37.6977 C   0  0  0  0  0  0  0  0  0  0  0  0
   31.3987   31.0713   37.9026 C   0  0  0  0  0  0  0  0  0  0  0  0
   31.9412   31.7079   39.0276 C   0  0  0  0  0  0  0  0  0  0  0  0
   31.7714   33.0781   39.2122 C   0  0  0  0  0  0  0  0  0  0  0  0
   31.0663   33.8307   38.2740 C   0  0  0  0  0  0  0  0  0  0  0  0
   30.5288   33.2205   37.1313 C   0  0  0  0  0  0  0  0  0  0  0  0
   29.6198   34.2409   36.0162 Cl  0  0  0  0  0  0  0  0  0  0  0  0
   30.7042   31.8269   36.9283 C   0  0  0  0  0  0  0  0  0  0  0  0
   30.1793   31.1039   35.7382 C   0  0  0  0  0  0  0  0  0  0  0  0
   29.7875   31.7310   34.7171 O   0  0  0  0  0  0  0  0  0  0  0  0
   30.9047   35.1622   38.4802 F   0  0  0  0  0  0  0  0  0  0  0  0
   24.5989   26.6538   36.5617 H   0  0  0  0  0  0  0  0  0  0  0  0
   23.2681   25.7737   35.7694 H   0  0  0  0  0  0  0  0  0  0  0  0
   31.6592   29.3874   33.5712 H   0  0  0  0  0  0  0  0  0  0  0  0
   31.0739   28.0596   31.5517 H   0  0  0  0  0  0  0  0  0  0  0  0
   28.8953   26.9543   31.3856 H   0  0  0  0  0  0  0  0  0  0  0  0
   26.6264   26.6231   31.2536 H   0  0  0  0  0  0  0  0  0  0  0  0
   26.3242   25.2204   32.3142 H   0  0  0  0  0  0  0  0  0  0  0  0
   30.7183   27.8811   36.7551 H   0  0  0  0  0  0  0  0  0  0  0  0
   29.5711   28.9510   37.6440 H   0  0  0  0  0  0  0  0  0  0  0  0
   31.7939   29.0835   38.6730 H   0  0  0  0  0  0  0  0  0  0  0  0
   32.5634   29.4653   37.0894 H   0  0  0  0  0  0  0  0  0  0  0  0
   32.4989   31.1415   39.7633 H   0  0  0  0  0  0  0  0  0  0  0  0
   32.1888   33.5588   40.0878 H   0  0  0  0  0  0  0  0  0  0  0  0
  1  2  1  0
  2  3  2  0
  2  4  1  0
  4  5  2  0
  5  6  1  0
  6  7  2  0
  7  8  1  0
  8  9  2  0
  9 10  1  0
 10 11  2  0
 11 12  1  0
 12 13  2  0
 13 14  1  0
  8 15  1  0
 15 16  1  0
 16 17  1  0
 17 18  1  0
 18 19  2  0
 19 20  1  0
 20 21  2  0
 21 22  1  0
 22 23  1  0
 22 24  2  0
 24 25  1  0
 25 26  2  0
 21 27  1  0
 13  4  1  0
 25 15  1  0
 12  7  1  0
 24 18  1  0
  1 28  1  0
  1 29  1  0
  9 30  1  0
 10 31  1  0
 11 32  1  0
 14 33  1  0
 14 34  1  0
 16 35  1  0
 16 36  1  0
 17 37  1  0
 17 38  1  0
 19 39  1  0
 20 40  1  0
M  END
$$$$
confid_5
     RDKit          3D

 40 43  0  0  0  0  0  0  0  0999 V2000
   24.2000   26.2400   35.6900 N   0  0  0  0  0  0  0  0  0  0  0  0
   24.8500   26.2800   34.4800 C   0  0  0  0  0  0  0  0  0  0  0  0
   24.3100   25.7400   33.5400 O   0  0  0  0  0  0  0  0  0  0  0  0
   26.1800   26.9700   34.4700 C   0  0  0  0  0  0  0  0  0  0  0  0
   26.6500   27.6000   35.5500 N   0  0  0  0  0  0  0  0  0  0  0  0
   27.7900   28.2700   35.6200 N   0  0  0  0  0  0  0  0  0  0  0  0
   28.5400   28.3000   34.5100 C   0  0  0  0  0  0  0  0  0  0  0  0
   29.7700   28.9400   34.5600 C   0  0  0  0  0  0  0  0  0  0  0  0
   30.7000   28.8900   33.5000 C   0  0  0  0  0  0  0  0  0  0  0  0
   30.3700   28.1400   32.3700 C   0  0  0  0  0  0  0  0  0  0  0  0
   29.1200   27.5200   32.2800 C   0  0  0  0  0  0  0  0  0  0  0  0
   28.2100   27.6100   33.3300 C   0  0  0  0  0  0  0  0  0  0  0  0
   26.9700   26.9700   33.3100 C   0  0  0  0  0  0  0  0  0  0  0  0
   26.5300   26.2400   32.2200 N   0  0  0  0  0  0  0  0  0  0  0  0
   30.1321   29.6781   35.7408 N   0  0  0  0  0  0  0  0  0  0  0  0
   29.5137   30.9849   35.9846 C   0  0  0  0  0  0  0  0  0  0  0  0
   29.3939   31.2480   37.4868 C   0  0  0  0  0  0  0  0  0  0  0  0
   30.7256   31.0706   38.1740 C   0  0  0  0  0  0  0  0  0  0  0  0
   31.0270   31.8458   39.3024 C   0  0  0  0  0  0  0  0  0  0  0  0
   32.2297   31.6640   39.9814 C   0  0  0  0  0  0  0  0  0  0  0  0
   33.1420   30.7027   39.5479 C   0  0  0  0  0  0  0  0  0  0  0  0
   32.8559   29.9026   38.4322 C   0  0  0  0  0  0  0  0  0  0  0  0
   34.0828   28.7404   37.9274 Cl  0  0  0  0  0  0  0  0  0  0  0  0
   31.6288   30.0721   37.7400 C   0  0  0  0  0  0  0  0  0  0  0  0
   31.2409   29.2558   36.5582 C   0  0  0  0  0  0  0  0  0  0  0  0
   31.8363   28.1767   36.2927 O   0  0  0  0  0  0  0  0  0  0  0  0
   34.3123   30.5511   40.2180 F   0  0  0  0  0  0  0  0  0  0  0  0
   24.5988   26.6539   36.5617 H   0  0  0  0  0  0  0  0  0  0  0  0
   23.2681   25.7737   35.7694 H   0  0  0  0  0  0  0  0  0  0  0  0
   31.6557   29.3946   33.5666 H   0  0  0  0  0  0  0  0  0  0  0  0
   31.0731   28.0613   31.5508 H   0  0  0  0  0  0  0  0  0  0  0  0
   28.8951   26.9547   31.3854 H   0  0  0  0  0  0  0  0  0  0  0  0
   26.3242   25.2204   32.3142 H   0  0  0  0  0  0  0  0  0  0  0  0
   26.6263   26.6231   31.2536 H   0  0  0  0  0  0  0  0  0  0  0  0
   30.1375   31.7761   35.5147 H   0  0  0  0  0  0  0  0  0  0  0  0
   28.5000   31.0293   35.5297 H   0  0  0  0  0  0  0  0  0  0  0  0
   29.0087   32.2802   37.6373 H   0  0  0  0  0  0  0  0  0  0  0  0
   28.6640   30.5361   37.9291 H   0  0  0  0  0  0  0  0  0  0  0  0
   30.3276   32.5923   39.6585 H   0  0  0  0  0  0  0  0  0  0  0  0
   32.4559   32.2723   40.8477 H   0  0  0  0  0  0  0  0  0  0  0  0
  1  2  1  0
  2  3  2  0
  2  4  1  0
  4  5  2  0
  5  6  1  0
  6  7  2  0
  7  8  1  0
  8  9  2  0
  9 10  1  0
 10 11  2  0
 11 12  1  0
 12 13  2  0
 13 14  1  0
  8 15  1  0
 15 16  1  0
 16 17  1  0
 17 18  1  0
 18 19  2  0
 19 20  1  0
 20 21  2  0
 21 22  1  0
 22 23  1  0
 22 24  2  0
 24 25  1  0
 25 26  2  0
 21 27  1  0
 13  4  1  0
 25 15  1  0
 12  7  1  0
 24 18  1  0
  1 28  1  0
  1 29  1  0
  9 30  1  0
 10 31  1  0
 11 32  1  0
 14 33  1  0
 14 34  1  0
 16 35  1  0
 16 36  1  0
 17 37  1  0
 17 38  1  0
 19 39  1  0
 20 40  1  0
M  END
$$$$
confid_6
     RDKit          3D

 40 43  0  0  0  0  0  0  0  0999 V2000
   24.2000   26.2400   35.6900 N   0  0  0  0  0  0  0  0  0  0  0  0
   24.8500   26.2800   34.4800 C   0  0  0  0  0  0  0  0  0  0  0  0
   24.3100   25.7400   33.5400 O   0  0  0  0  0  0  0  0  0  0  0  0
   26.1800   26.9700   34.4700 C   0  0  0  0  0  0  0  0  0  0  0  0
   26.6500   27.6000   35.5500 N   0  0  0  0  0  0  0  0  0  0  0  0
   27.7900   28.2700   35.6200 N   0  0  0  0  0  0  0  0  0  0  0  0
   28.5400   28.3000   34.5100 C   0  0  0  0  0  0  0  0  0  0  0  0
   29.7700   28.9400   34.5600 C   0  0  0  0  0  0  0  0  0  0  0  0
   30.7000   28.8900   33.5000 C   0  0  0  0  0  0  0  0  0  0  0  0
   30.3700   28.1400   32.3700 C   0  0  0  0  0  0  0  0  0  0  0  0
   29.1200   27.5200   32.2800 C   0  0  0  0  0  0  0  0  0  0  0  0
   28.2100   27.6100   33.3300 C   0  0  0  0  0  0  0  0  0  0  0  0
   26.9700   26.9700   33.3100 C   0  0  0  0  0  0  0  0  0  0  0  0
   26.5300   26.2400   32.2200 N   0  0  0  0  0  0  0  0  0  0  0  0
   30.1437   29.6643   35.7458 N   0  0  0  0  0  0  0  0  0  0  0  0
   30.3503   31.1123   35.6683 C   0  0  0  0  0  0  0  0  0  0  0  0
   29.9395   31.7771   36.9828 C   0  0  0  0  0  0  0  0  0  0  0  0
   30.6264   31.1268   38.1592 C   0  0  0  0  0  0  0  0  0  0  0  0
   30.9204   31.8981   39.2922 C   0  0  0  0  0  0  0  0  0  0  0  0
   31.5072   31.3122   40.4111 C   0  0  0  0  0  0  0  0  0  0  0  0
   31.7993   29.9492   40.4175 C   0  0  0  0  0  0  0  0  0  0  0  0
   31.4990   29.1518   39.3036 C   0  0  0  0  0  0  0  0  0  0  0  0
   31.9324   27.4441   39.3892 Cl  0  0  0  0  0  0  0  0  0  0  0  0
   30.8930   29.7366   38.1604 C   0  0  0  0  0  0  0  0  0  0  0  0
   30.5321   28.9611   36.9416 C   0  0  0  0  0  0  0  0  0  0  0  0
   30.5402   27.7004   36.9473 O   0  0  0  0  0  0  0  0  0  0  0  0
   32.3789   29.4022   41.5159 F   0  0  0  0  0  0  0  0  0  0  0  0
   23.2681   25.7737   35.7694 H   0  0  0  0  0  0  0  0  0  0  0  0
   24.5989   26.6537   36.5617 H   0  0  0  0  0  0  0  0  0  0  0  0
   31.6599   29.3858   33.5704 H   0  0  0  0  0  0  0  0  0  0  0  0
   31.0740   28.0593   31.5518 H   0  0  0  0  0  0  0  0  0  0  0  0
   28.8953   26.9542   31.3857 H   0  0  0  0  0  0  0  0  0  0  0  0
   26.3242   25.2204   32.3142 H   0  0  0  0  0  0  0  0  0  0  0  0
   26.6264   26.6231   31.2536 H   0  0  0  0  0  0  0  0  0  0  0  0
   31.4228   31.3198   35.4612 H   0  0  0  0  0  0  0  0  0  0  0  0
   29.7440   31.5453   34.8423 H   0  0  0  0  0  0  0  0  0  0  0  0
   28.8399   31.6848   37.1146 H   0  0  0  0  0  0  0  0  0  0  0  0
   30.1942   32.8581   36.9286 H   0  0  0  0  0  0  0  0  0  0  0  0
   30.6927   32.9569   39.3098 H   0  0  0  0  0  0  0  0  0  0  0  0
   31.7360   31.9184   41.2783 H   0  0  0  0  0  0  0  0  0  0  0  0
  1  2  1  0
  2  3  2  0
  2  4  1  0
  4  5  2  0
  5  6  1  0
  6  7  2  0
  7  8  1  0
  8  9  2  0
  9 10  1  0
 10 11  2  0
 11 12  1  0
 12 13  2  0
 13 14  1  0
  8 15  1  0
 15 16  1  0
 16 17  1  0
 17 18  1  0
 18 19  2  0
 19 20  1  0
 20 21  2  0
 21 22  1  0
 22 23  1  0
 22 24  2  0
 24 25  1  0
 25 26  2  0
 21 27  1  0
 13  4  1  0
 25 15  1  0
 12  7  1  0
 24 18  1  0
  1 28  1  0
  1 29  1  0
  9 30  1  0
 10 31  1  0
 11 32  1  0
 14 33  1  0
 14 34  1  0
 16 35  1  0
 16 36  1  0
 17 37  1  0
 17 38  1  0
 19 39  1  0
 20 40  1  0
M  END
$$$$
