confid_0
     RDKit          3D

 46 50  0  0  0  0  0  0  0  0999 V2000
   24.6900   26.1200   35.5300 N   0  0  0  0  0  0  0  0  0  0  0  0
   25.6600   25.6700   34.6600 C   0  0  0  0  0  0  0  0  0  0  0  0
   25.2400   25.0100   33.7200 O   0  0  0  0  0  0  0  0  0  0  0  0
   27.0300   26.2200   34.8800 C   0  0  0  0  0  0  0  0  0  0  0  0
   27.3500   26.7300   36.0700 N   0  0  0  0  0  0  0  0  0  0  0  0
   28.5700   27.1800   36.3300 N   0  0  0  0  0  0  0  0  0  0  0  0
   29.5300   27.1100   35.3900 C   0  0  0  0  0  0  0  0  0  0  0  0
   30.8300   27.5700   35.6500 C   0  0  0  0  0  0  0  0  0  0  0  0
   31.8500   27.5400   34.6900 C   0  0  0  0  0  0  0  0  0  0  0  0
   31.5100   27.1200   33.4000 C   0  0  0  0  0  0  0  0  0  0  0  0
   30.2200   26.6300   33.1100 C   0  0  0  0  0  0  0  0  0  0  0  0
   29.2400   26.6600   34.1000 C   0  0  0  0  0  0  0  0  0  0  0  0
   27.9300   26.2600   33.8100 C   0  0  0  0  0  0  0  0  0  0  0  0
   27.5200   25.7100   32.6100 N   0  0  0  0  0  0  0  0  0  0  0  0
   23.3191   26.3785   35.1714 C   0  0  0  0  0  0  0  0  0  0  0  0
   22.9720   26.4531   33.9143 N   0  0  0  0  0  0  0  0  0  0  0  0
   21.7091   26.7462   33.2750 C   0  0  0  0  0  0  0  0  0  0  0  0
   20.4830   26.4400   33.7284 C   0  0  0  0  0  0  0  0  0  0  0  0
   19.1022   26.5116   33.1362 C   0  0  0  0  0  0  0  0  0  0  0  0
   18.4531   25.9288   34.2187 O   0  0  0  0  0  0  0  0  0  0  0  0
   19.6797   25.8335   34.8644 C   0  0  0  0  0  0  0  0  0  0  0  0
   19.6738   26.6757   36.1471 C   0  0  0  0  0  0  0  0  0  0  0  0
   21.0657   26.7512   36.6157 C   0  0  0  0  0  0  0  0  0  0  0  0
   22.3722   26.6441   36.2433 C   0  0  0  0  0  0  0  0  0  0  0  0
   22.0636   26.9104   37.5811 N   0  0  0  0  0  0  0  0  0  0  0  0
   22.4764   27.0882   38.9613 C   0  0  0  0  0  0  0  0  0  0  0  0
   22.7312   25.7281   39.6050 C   0  0  0  0  0  0  0  0  0  0  0  0
   23.1034   25.8877   40.9466 O   0  0  0  0  0  0  0  0  0  0  0  0
   24.9497   26.2779   36.5306 H   0  0  0  0  0  0  0  0  0  0  0  0
   31.0672   27.9417   36.6393 H   0  0  0  0  0  0  0  0  0  0  0  0
   32.8482   27.8886   34.9211 H   0  0  0  0  0  0  0  0  0  0  0  0
   32.2640   27.1263   32.6235 H   0  0  0  0  0  0  0  0  0  0  0  0
   30.0101   26.3034   32.1004 H   0  0  0  0  0  0  0  0  0  0  0  0
   26.6934   26.1022   32.1059 H   0  0  0  0  0  0  0  0  0  0  0  0
   28.1317   25.0437   32.0890 H   0  0  0  0  0  0  0  0  0  0  0  0
   21.7593   27.1321   32.2658 H   0  0  0  0  0  0  0  0  0  0  0  0
   18.7688   27.5614   32.9798 H   0  0  0  0  0  0  0  0  0  0  0  0
   19.0071   25.8837   32.2229 H   0  0  0  0  0  0  0  0  0  0  0  0
   19.9553   24.7699   35.0491 H   0  0  0  0  0  0  0  0  0  0  0  0
   19.2955   27.7016   35.9487 H   0  0  0  0  0  0  0  0  0  0  0  0
   19.0448   26.1885   36.9211 H   0  0  0  0  0  0  0  0  0  0  0  0
   21.6772   27.6251   39.5149 H   0  0  0  0  0  0  0  0  0  0  0  0
   23.4048   27.6974   38.9862 H   0  0  0  0  0  0  0  0  0  0  0  0
   23.5234   25.1809   39.0442 H   0  0  0  0  0  0  0  0  0  0  0  0
   21.8004   25.1230   39.5646 H   0  0  0  0  0  0  0  0  0  0  0  0
   24.0505   26.1858   40.9449 H   0  0  0  0  0  0  0  0  0  0  0  0
  1  2  1  0
  2  3  2  0
  2  4  1  0
  4  5  2  0
  5  6  1  0
  6  7  2  0
  7  8  1  0
  8  9  2  0
  9 10  1  0
 10 11  2  0
 11 12  1  0
 12 13  2  0
 13 14  1  0
  1 15  1  0
 15 16  2  0
 16 17  1  0
 17 18  2  0
 18 19  1  0
 19 20  1  0
 20 21  1  0
 21 22  1  0
 22 23  1  0
 23 24  2  0
 24 25  1  0
 25 26  1  0
 26 27  1  0
 27 28  1  0
 13  4  1  0
 24 15  1  0
 12  7  1  0
 21 18  1  0
 25 23  1  0
  1 29  1  0
  8 30  1  0
  9 31  1  0
 10 32  1  0
 11 33  1  0
 14 34  1  0
 14 35  1  0
 17 36  1  0
 19 37  1  0
 19 38  1  0
 21 39  1  0
 22 40  1  0
 22 41  1  0
 26 42  1  0
 26 43  1  0
 27 44  1  0
 27 45  1  0
 28 46  1  0
M  END
$$$$
