confid_0
     RDKit          3D

 44 47  0  0  0  0  0  0  0  0999 V2000
   24.6900   26.1200   35.5300 N   0  0  0  0  0  0  0  0  0  0  0  0
   25.6600   25.6700   34.6600 C   0  0  0  0  0  0  0  0  0  0  0  0
   25.2400   25.0100   33.7200 O   0  0  0  0  0  0  0  0  0  0  0  0
   27.0300   26.2200   34.8800 C   0  0  0  0  0  0  0  0  0  0  0  0
   27.3500   26.7300   36.0700 N   0  0  0  0  0  0  0  0  0  0  0  0
   28.5700   27.1800   36.3300 N   0  0  0  0  0  0  0  0  0  0  0  0
   29.5300   27.1100   35.3900 C   0  0  0  0  0  0  0  0  0  0  0  0
   30.8300   27.5700   35.6500 C   0  0  0  0  0  0  0  0  0  0  0  0
   31.8500   27.5400   34.6900 C   0  0  0  0  0  0  0  0  0  0  0  0
   31.5100   27.1200   33.4000 C   0  0  0  0  0  0  0  0  0  0  0  0
   30.2200   26.6300   33.1100 C   0  0  0  0  0  0  0  0  0  0  0  0
   29.2400   26.6600   34.1000 C   0  0  0  0  0  0  0  0  0  0  0  0
   27.9300   26.2600   33.8100 C   0  0  0  0  0  0  0  0  0  0  0  0
   27.5200   25.7100   32.6100 N   0  0  0  0  0  0  0  0  0  0  0  0
   31.1798   28.0683   37.0028 C   0  0  0  0  0  0  0  0  0  0  0  0
   31.0634   27.2030   38.1109 C   0  0  0  0  0  0  0  0  0  0  0  0
   31.4087   27.6871   39.3676 C   0  0  0  0  0  0  0  0  0  0  0  0
   31.3928   27.0414   40.6556 C   0  0  0  0  0  0  0  0  0  0  0  0
   31.0388   25.8545   40.8852 O   0  0  0  0  0  0  0  0  0  0  0  0
   31.8427   27.9550   41.6492 N   0  0  0  0  0  0  0  0  0  0  0  0
   32.1642   29.2327   41.0070 C   0  0  0  0  0  0  0  0  0  0  0  0
   31.8599   28.9726   39.5578 C   0  0  0  0  0  0  0  0  0  0  0  0
   31.9874   29.8507   38.4836 C   0  0  0  0  0  0  0  0  0  0  0  0
   31.6426   29.4008   37.1856 C   0  0  0  0  0  0  0  0  0  0  0  0
   31.7352   30.2443   36.0661 O   0  0  0  0  0  0  0  0  0  0  0  0
   32.1841   31.5946   36.1079 C   0  0  0  0  0  0  0  0  0  0  0  0
   31.9638   27.6676   43.0722 C   0  0  0  0  0  0  0  0  0  0  0  0
   24.8908   26.7904   36.3051 H   0  0  0  0  0  0  0  0  0  0  0  0
   23.6981   25.8078   35.4227 H   0  0  0  0  0  0  0  0  0  0  0  0
   32.8557   27.8762   34.9124 H   0  0  0  0  0  0  0  0  0  0  0  0
   32.2660   27.1187   32.6255 H   0  0  0  0  0  0  0  0  0  0  0  0
   30.0115   26.2780   32.1080 H   0  0  0  0  0  0  0  0  0  0  0  0
   27.6979   26.2229   31.7183 H   0  0  0  0  0  0  0  0  0  0  0  0
   27.3415   24.6832   32.5416 H   0  0  0  0  0  0  0  0  0  0  0  0
   30.7219   26.1819   37.9927 H   0  0  0  0  0  0  0  0  0  0  0  0
   33.2394   29.4751   41.1442 H   0  0  0  0  0  0  0  0  0  0  0  0
   31.5140   30.0404   41.4051 H   0  0  0  0  0  0  0  0  0  0  0  0
   32.3426   30.8563   38.6618 H   0  0  0  0  0  0  0  0  0  0  0  0
   31.5168   32.1989   36.7580 H   0  0  0  0  0  0  0  0  0  0  0  0
   32.1582   32.0166   35.0825 H   0  0  0  0  0  0  0  0  0  0  0  0
   33.2280   31.6383   36.4841 H   0  0  0  0  0  0  0  0  0  0  0  0
   32.6749   26.8289   43.2240 H   0  0  0  0  0  0  0  0  0  0  0  0
   30.9709   27.3874   43.4818 H   0  0  0  0  0  0  0  0  0  0  0  0
   32.3387   28.5614   43.6141 H   0  0  0  0  0  0  0  0  0  0  0  0
  1  2  1  0
  2  3  2  0
  2  4  1  0
  4  5  2  0
  5  6  1  0
  6  7  2  0
  7  8  1  0
  8  9  2  0
  9 10  1  0
 10 11  2  0
 11 12  1  0
 12 13  2  0
 13 14  1  0
  8 15  1  0
 15 16  2  0
 16 17  1  0
 17 18  1  0
 18 19  2  0
 18 20  1  0
 20 21  1  0
 21 22  1  0
 22 23  1  0
 23 24  2  0
 24 25  1  0
 25 26  1  0
 20 27  1  0
 13  4  1  0
 24 15  1  0
 12  7  1  0
 22 17  2  0
  1 28  1  0
  1 29  1  0
  9 30  1  0
 10 31  1  0
 11 32  1  0
 14 33  1  0
 14 34  1  0
 16 35  1  0
 21 36  1  0
 21 37  1  0
 23 38  1  0
 26 39  1  0
 26 40  1  0
 26 41  1  0
 27 42  1  0
 27 43  1  0
 27 44  1  0
M  END
$$$$
confid_1
     RDKit          3D

 44 47  0  0  0  0  0  0  0  0999 V2000
   24.6900   26.1200   35.5300 N   0  0  0  0  0  0  0  0  0  0  0  0
   25.6600   25.6700   34.6600 C   0  0  0  0  0  0  0  0  0  0  0  0
   25.2400   25.0100   33.7200 O   0  0  0  0  0  0  0  0  0  0  0  0
   27.0300   26.2200   34.8800 C   0  0  0  0  0  0  0  0  0  0  0  0
   27.3500   26.7300   36.0700 N   0  0  0  0  0  0  0  0  0  0  0  0
   28.5700   27.1800   36.3300 N   0  0  0  0  0  0  0  0  0  0  0  0
   29.5300   27.1100   35.3900 C   0  0  0  0  0  0  0  0  0  0  0  0
   30.8300   27.5700   35.6500 C   0  0  0  0  0  0  0  0  0  0  0  0
   31.8500   27.5400   34.6900 C   0  0  0  0  0  0  0  0  0  0  0  0
   31.5100   27.1200   33.4000 C   0  0  0  0  0  0  0  0  0  0  0  0
   30.2200   26.6300   33.1100 C   0  0  0  0  0  0  0  0  0  0  0  0
   29.2400   26.6600   34.1000 C   0  0  0  0  0  0  0  0  0  0  0  0
   27.9300   26.2600   33.8100 C   0  0  0  0  0  0  0  0  0  0  0  0
   27.5200   25.7100   32.6100 N   0  0  0  0  0  0  0  0  0  0  0  0
   31.1704   28.0973   36.9935 C   0  0  0  0  0  0  0  0  0  0  0  0
   30.5173   29.2542   37.4674 C   0  0  0  0  0  0  0  0  0  0  0  0
   30.8598   29.7393   38.7245 C   0  0  0  0  0  0  0  0  0  0  0  0
   30.3685   30.8816   39.4522 C   0  0  0  0  0  0  0  0  0  0  0  0
   29.4869   31.6895   39.0561 O   0  0  0  0  0  0  0  0  0  0  0  0
   31.0350   30.9671   40.7063 N   0  0  0  0  0  0  0  0  0  0  0  0
   31.9884   29.8589   40.8124 C   0  0  0  0  0  0  0  0  0  0  0  0
   31.8112   29.1300   39.5094 C   0  0  0  0  0  0  0  0  0  0  0  0
   32.4749   27.9869   39.0689 C   0  0  0  0  0  0  0  0  0  0  0  0
   32.1544   27.4558   37.7956 C   0  0  0  0  0  0  0  0  0  0  0  0
   32.7783   26.2976   37.3032 O   0  0  0  0  0  0  0  0  0  0  0  0
   33.7781   25.5614   37.9996 C   0  0  0  0  0  0  0  0  0  0  0  0
   30.8071   31.9887   41.7194 C   0  0  0  0  0  0  0  0  0  0  0  0
   23.6981   25.8077   35.4228 H   0  0  0  0  0  0  0  0  0  0  0  0
   24.8908   26.7905   36.3050 H   0  0  0  0  0  0  0  0  0  0  0  0
   32.8512   27.8919   34.9081 H   0  0  0  0  0  0  0  0  0  0  0  0
   32.2650   27.1222   32.6245 H   0  0  0  0  0  0  0  0  0  0  0  0
   30.0113   26.2787   32.1078 H   0  0  0  0  0  0  0  0  0  0  0  0
   27.6977   26.2229   31.7183 H   0  0  0  0  0  0  0  0  0  0  0  0
   27.3415   24.6831   32.5416 H   0  0  0  0  0  0  0  0  0  0  0  0
   29.7713   29.7628   36.8689 H   0  0  0  0  0  0  0  0  0  0  0  0
   33.0247   30.2474   40.9063 H   0  0  0  0  0  0  0  0  0  0  0  0
   31.7244   29.2017   41.6680 H   0  0  0  0  0  0  0  0  0  0  0  0
   33.2168   27.5270   39.7070 H   0  0  0  0  0  0  0  0  0  0  0  0
   33.3706   25.1762   38.9581 H   0  0  0  0  0  0  0  0  0  0  0  0
   34.6627   26.2051   38.1903 H   0  0  0  0  0  0  0  0  0  0  0  0
   34.0936   24.7000   37.3761 H   0  0  0  0  0  0  0  0  0  0  0  0
   31.0317   32.9900   41.2963 H   0  0  0  0  0  0  0  0  0  0  0  0
   31.4636   31.8123   42.5975 H   0  0  0  0  0  0  0  0  0  0  0  0
   29.7476   31.9572   42.0488 H   0  0  0  0  0  0  0  0  0  0  0  0
  1  2  1  0
  2  3  2  0
  2  4  1  0
  4  5  2  0
  5  6  1  0
  6  7  2  0
  7  8  1  0
  8  9  2  0
  9 10  1  0
 10 11  2  0
 11 12  1  0
 12 13  2  0
 13 14  1  0
  8 15  1  0
 15 16  2  0
 16 17  1  0
 17 18  1  0
 18 19  2  0
 18 20  1  0
 20 21  1  0
 21 22  1  0
 22 23  1  0
 23 24  2  0
 24 25  1  0
 25 26  1  0
 20 27  1  0
 13  4  1  0
 24 15  1  0
 12  7  1  0
 22 17  2  0
  1 28  1  0
  1 29  1  0
  9 30  1  0
 10 31  1  0
 11 32  1  0
 14 33  1  0
 14 34  1  0
 16 35  1  0
 21 36  1  0
 21 37  1  0
 23 38  1  0
 26 39  1  0
 26 40  1  0
 26 41  1  0
 27 42  1  0
 27 43  1  0
 27 44  1  0
M  END
$$$$
confid_2
     RDKit          3D

 44 47  0  0  0  0  0  0  0  0999 V2000
   24.6900   26.1200   35.5300 N   0  0  0  0  0  0  0  0  0  0  0  0
   25.6600   25.6700   34.6600 C   0  0  0  0  0  0  0  0  0  0  0  0
   25.2400   25.0100   33.7200 O   0  0  0  0  0  0  0  0  0  0  0  0
   27.0300   26.2200   34.8800 C   0  0  0  0  0  0  0  0  0  0  0  0
   27.3500   26.7300   36.0700 N   0  0  0  0  0  0  0  0  0  0  0  0
   28.5700   27.1800   36.3300 N   0  0  0  0  0  0  0  0  0  0  0  0
   29.5300   27.1100   35.3900 C   0  0  0  0  0  0  0  0  0  0  0  0
   30.8300   27.5700   35.6500 C   0  0  0  0  0  0  0  0  0  0  0  0
   31.8500   27.5400   34.6900 C   0  0  0  0  0  0  0  0  0  0  0  0
   31.5100   27.1200   33.4000 C   0  0  0  0  0  0  0  0  0  0  0  0
   30.2200   26.6300   33.1100 C   0  0  0  0  0  0  0  0  0  0  0  0
   29.2400   26.6600   34.1000 C   0  0  0  0  0  0  0  0  0  0  0  0
   27.9300   26.2600   33.8100 C   0  0  0  0  0  0  0  0  0  0  0  0
   27.5200   25.7100   32.6100 N   0  0  0  0  0  0  0  0  0  0  0  0
   31.1741   28.0913   36.9938 C   0  0  0  0  0  0  0  0  0  0  0  0
   32.1292   27.4069   37.7731 C   0  0  0  0  0  0  0  0  0  0  0  0
   32.4364   27.9086   39.0330 C   0  0  0  0  0  0  0  0  0  0  0  0
   33.3515   27.4246   40.0352 C   0  0  0  0  0  0  0  0  0  0  0  0
   34.0794   26.4008   39.9415 O   0  0  0  0  0  0  0  0  0  0  0  0
   33.3136   28.2859   41.1671 N   0  0  0  0  0  0  0  0  0  0  0  0
   32.3537   29.3634   40.9104 C   0  0  0  0  0  0  0  0  0  0  0  0
   31.8432   29.0450   39.5326 C   0  0  0  0  0  0  0  0  0  0  0  0
   30.9036   29.7489   38.7822 C   0  0  0  0  0  0  0  0  0  0  0  0
   30.5636   29.2754   37.4914 C   0  0  0  0  0  0  0  0  0  0  0  0
   29.6414   29.9540   36.6775 O   0  0  0  0  0  0  0  0  0  0  0  0
   28.9470   31.1370   37.0578 C   0  0  0  0  0  0  0  0  0  0  0  0
   34.1005   28.1237   42.3822 C   0  0  0  0  0  0  0  0  0  0  0  0
   24.8907   26.7908   36.3048 H   0  0  0  0  0  0  0  0  0  0  0  0
   23.6982   25.8076   35.4229 H   0  0  0  0  0  0  0  0  0  0  0  0
   32.8520   27.8889   34.9096 H   0  0  0  0  0  0  0  0  0  0  0  0
   32.2652   27.1215   32.6247 H   0  0  0  0  0  0  0  0  0  0  0  0
   30.0113   26.2786   32.1078 H   0  0  0  0  0  0  0  0  0  0  0  0
   27.6977   26.2230   31.7183 H   0  0  0  0  0  0  0  0  0  0  0  0
   27.3415   24.6831   32.5416 H   0  0  0  0  0  0  0  0  0  0  0  0
   32.6092   26.5065   37.4094 H   0  0  0  0  0  0  0  0  0  0  0  0
   31.5273   29.3305   41.6518 H   0  0  0  0  0  0  0  0  0  0  0  0
   32.8662   30.3488   40.9203 H   0  0  0  0  0  0  0  0  0  0  0  0
   30.4583   30.6432   39.1959 H   0  0  0  0  0  0  0  0  0  0  0  0
   28.3267   30.9425   37.9581 H   0  0  0  0  0  0  0  0  0  0  0  0
   28.2804   31.4480   36.2276 H   0  0  0  0  0  0  0  0  0  0  0  0
   29.6696   31.9558   37.2595 H   0  0  0  0  0  0  0  0  0  0  0  0
   33.8715   28.9395   43.1000 H   0  0  0  0  0  0  0  0  0  0  0  0
   33.8595   27.1488   42.8551 H   0  0  0  0  0  0  0  0  0  0  0  0
   35.1817   28.1550   42.1331 H   0  0  0  0  0  0  0  0  0  0  0  0
  1  2  1  0
  2  3  2  0
  2  4  1  0
  4  5  2  0
  5  6  1  0
  6  7  2  0
  7  8  1  0
  8  9  2  0
  9 10  1  0
 10 11  2  0
 11 12  1  0
 12 13  2  0
 13 14  1  0
  8 15  1  0
 15 16  2  0
 16 17  1  0
 17 18  1  0
 18 19  2  0
 18 20  1  0
 20 21  1  0
 21 22  1  0
 22 23  1  0
 23 24  2  0
 24 25  1  0
 25 26  1  0
 20 27  1  0
 13  4  1  0
 24 15  1  0
 12  7  1  0
 22 17  2  0
  1 28  1  0
  1 29  1  0
  9 30  1  0
 10 31  1  0
 11 32  1  0
 14 33  1  0
 14 34  1  0
 16 35  1  0
 21 36  1  0
 21 37  1  0
 23 38  1  0
 26 39  1  0
 26 40  1  0
 26 41  1  0
 27 42  1  0
 27 43  1  0
 27 44  1  0
M  END
$$$$
confid_3
     RDKit          3D

 44 47  0  0  0  0  0  0  0  0999 V2000
   24.6900   26.1200   35.5300 N   0  0  0  0  0  0  0  0  0  0  0  0
   25.6600   25.6700   34.6600 C   0  0  0  0  0  0  0  0  0  0  0  0
   25.2400   25.0100   33.7200 O   0  0  0  0  0  0  0  0  0  0  0  0
   27.0300   26.2200   34.8800 C   0  0  0  0  0  0  0  0  0  0  0  0
   27.3500   26.7300   36.0700 N   0  0  0  0  0  0  0  0  0  0  0  0
   28.5700   27.1800   36.3300 N   0  0  0  0  0  0  0  0  0  0  0  0
   29.5300   27.1100   35.3900 C   0  0  0  0  0  0  0  0  0  0  0  0
   30.8300   27.5700   35.6500 C   0  0  0  0  0  0  0  0  0  0  0  0
   31.8500   27.5400   34.6900 C   0  0  0  0  0  0  0  0  0  0  0  0
   31.5100   27.1200   33.4000 C   0  0  0  0  0  0  0  0  0  0  0  0
   30.2200   26.6300   33.1100 C   0  0  0  0  0  0  0  0  0  0  0  0
   29.2400   26.6600   34.1000 C   0  0  0  0  0  0  0  0  0  0  0  0
   27.9300   26.2600   33.8100 C   0  0  0  0  0  0  0  0  0  0  0  0
   27.5200   25.7100   32.6100 N   0  0  0  0  0  0  0  0  0  0  0  0
   31.1799   28.0755   36.9989 C   0  0  0  0  0  0  0  0  0  0  0  0
   31.5981   29.4143   37.1428 C   0  0  0  0  0  0  0  0  0  0  0  0
   31.9184   29.8738   38.4154 C   0  0  0  0  0  0  0  0  0  0  0  0
   32.3608   31.1718   38.8576 C   0  0  0  0  0  0  0  0  0  0  0  0
   32.5478   32.1800   38.1259 O   0  0  0  0  0  0  0  0  0  0  0  0
   32.5597   31.1502   40.2663 N   0  0  0  0  0  0  0  0  0  0  0  0
   32.2429   29.8103   40.7689 C   0  0  0  0  0  0  0  0  0  0  0  0
   31.8438   29.0648   39.5257 C   0  0  0  0  0  0  0  0  0  0  0  0
   31.4447   27.7346   39.4143 C   0  0  0  0  0  0  0  0  0  0  0  0
   31.1128   27.2233   38.1359 C   0  0  0  0  0  0  0  0  0  0  0  0
   30.7280   25.8843   37.9562 O   0  0  0  0  0  0  0  0  0  0  0  0
   30.6033   24.9322   39.0070 C   0  0  0  0  0  0  0  0  0  0  0  0
   33.0059   32.2756   41.0766 C   0  0  0  0  0  0  0  0  0  0  0  0
   24.8908   26.7902   36.3052 H   0  0  0  0  0  0  0  0  0  0  0  0
   23.6981   25.8078   35.4227 H   0  0  0  0  0  0  0  0  0  0  0  0
   32.8544   27.8801   34.9120 H   0  0  0  0  0  0  0  0  0  0  0  0
   32.2658   27.1195   32.6252 H   0  0  0  0  0  0  0  0  0  0  0  0
   30.0115   26.2781   32.1079 H   0  0  0  0  0  0  0  0  0  0  0  0
   27.3415   24.6831   32.5417 H   0  0  0  0  0  0  0  0  0  0  0  0
   27.6978   26.2229   31.7183 H   0  0  0  0  0  0  0  0  0  0  0  0
   31.6613   30.0774   36.2886 H   0  0  0  0  0  0  0  0  0  0  0  0
   33.1407   29.3482   41.2316 H   0  0  0  0  0  0  0  0  0  0  0  0
   31.3967   29.8562   41.4868 H   0  0  0  0  0  0  0  0  0  0  0  0
   31.4024   27.1187   40.3021 H   0  0  0  0  0  0  0  0  0  0  0  0
   29.8417   25.2713   39.7406 H   0  0  0  0  0  0  0  0  0  0  0  0
   31.5828   24.7881   39.5100 H   0  0  0  0  0  0  0  0  0  0  0  0
   30.2773   23.9620   38.5795 H   0  0  0  0  0  0  0  0  0  0  0  0
   33.0746   31.9771   42.1440 H   0  0  0  0  0  0  0  0  0  0  0  0
   32.2833   33.1129   40.9818 H   0  0  0  0  0  0  0  0  0  0  0  0
   34.0058   32.6110   40.7305 H   0  0  0  0  0  0  0  0  0  0  0  0
  1  2  1  0
  2  3  2  0
  2  4  1  0
  4  5  2  0
  5  6  1  0
  6  7  2  0
  7  8  1  0
  8  9  2  0
  9 10  1  0
 10 11  2  0
 11 12  1  0
 12 13  2  0
 13 14  1  0
  8 15  1  0
 15 16  2  0
 16 17  1  0
 17 18  1  0
 18 19  2  0
 18 20  1  0
 20 21  1  0
 21 22  1  0
 22 23  1  0
 23 24  2  0
 24 25  1  0
 25 26  1  0
 20 27  1  0
 13  4  1  0
 24 15  1  0
 12  7  1  0
 22 17  2  0
  1 28  1  0
  1 29  1  0
  9 30  1  0
 10 31  1  0
 11 32  1  0
 14 33  1  0
 14 34  1  0
 16 35  1  0
 21 36  1  0
 21 37  1  0
 23 38  1  0
 26 39  1  0
 26 40  1  0
 26 41  1  0
 27 42  1  0
 27 43  1  0
 27 44  1  0
M  END
$$$$
