confid_0
     RDKit          3D

 41 44  0  0  0  0  0  0  0  0999 V2000
   24.5500   26.3900   36.2500 N   0  0  0  0  0  0  0  0  0  0  0  0
   25.6000   26.1300   35.4000 C   0  0  0  0  0  0  0  0  0  0  0  0
   25.4300   25.4300   34.4200 O   0  0  0  0  0  0  0  0  0  0  0  0
   26.9800   26.6300   35.7100 C   0  0  0  0  0  0  0  0  0  0  0  0
   27.3200   26.8200   36.9800 N   0  0  0  0  0  0  0  0  0  0  0  0
   28.4700   27.4000   37.3100 N   0  0  0  0  0  0  0  0  0  0  0  0
   29.4000   27.6300   36.3700 C   0  0  0  0  0  0  0  0  0  0  0  0
   30.6600   28.0500   36.8000 C   0  0  0  0  0  0  0  0  0  0  0  0
   31.5700   28.3600   35.7800 C   0  0  0  0  0  0  0  0  0  0  0  0
   31.3700   28.1000   34.4300 C   0  0  0  0  0  0  0  0  0  0  0  0
   30.1200   27.5900   34.0500 C   0  0  0  0  0  0  0  0  0  0  0  0
   29.1500   27.3400   35.0300 C   0  0  0  0  0  0  0  0  0  0  0  0
   27.8800   26.8900   34.6600 C   0  0  0  0  0  0  0  0  0  0  0  0
   27.4800   26.6100   33.3700 N   0  0  0  0  0  0  0  0  0  0  0  0
   31.0174   28.3062   38.2204 C   0  0  0  0  0  0  0  0  0  0  0  0
   32.3006   28.1761   38.7633 C   0  0  0  0  0  0  0  0  0  0  0  0
   32.3560   28.5216   40.1180 C   0  0  0  0  0  0  0  0  0  0  0  0
   33.5905   28.5917   40.9599 C   0  0  0  0  0  0  0  0  0  0  0  0
   33.2458   28.4635   42.4585 C   0  0  0  0  0  0  0  0  0  0  0  0
   32.0512   29.2566   42.8243 N   0  0  0  0  0  0  0  0  0  0  0  0
   31.8410   29.7306   44.1661 C   0  0  0  0  0  0  0  0  0  0  0  0
   30.8042   30.3974   44.4294 O   0  0  0  0  0  0  0  0  0  0  0  0
   32.8276   29.4685   45.2640 C   0  0  0  0  0  0  0  0  0  0  0  0
   30.9964   29.3692   41.9313 O   0  0  0  0  0  0  0  0  0  0  0  0
   31.1515   28.9503   40.6164 C   0  0  0  0  0  0  0  0  0  0  0  0
   29.9755   28.8922   39.4253 S   0  0  0  0  0  0  0  0  0  0  0  0
   23.6001   26.0040   36.0503 H   0  0  0  0  0  0  0  0  0  0  0  0
   24.6739   26.9932   37.0933 H   0  0  0  0  0  0  0  0  0  0  0  0
   32.5292   28.7828   36.0514 H   0  0  0  0  0  0  0  0  0  0  0  0
   32.1325   28.3225   33.6945 H   0  0  0  0  0  0  0  0  0  0  0  0
   29.9370   27.4186   32.9982 H   0  0  0  0  0  0  0  0  0  0  0  0
   26.5962   27.0148   32.9873 H   0  0  0  0  0  0  0  0  0  0  0  0
   28.1243   26.1388   32.6978 H   0  0  0  0  0  0  0  0  0  0  0  0
   33.1644   27.8461   38.2009 H   0  0  0  0  0  0  0  0  0  0  0  0
   34.2957   27.7833   40.6701 H   0  0  0  0  0  0  0  0  0  0  0  0
   34.0840   29.5708   40.7797 H   0  0  0  0  0  0  0  0  0  0  0  0
   34.1324   28.7942   43.0393 H   0  0  0  0  0  0  0  0  0  0  0  0
   33.0514   27.3959   42.6985 H   0  0  0  0  0  0  0  0  0  0  0  0
   33.7530   30.0538   45.0833 H   0  0  0  0  0  0  0  0  0  0  0  0
   32.4045   29.7695   46.2460 H   0  0  0  0  0  0  0  0  0  0  0  0
   33.0708   28.3863   45.3061 H   0  0  0  0  0  0  0  0  0  0  0  0
  1  2  1  0
  2  3  2  0
  2  4  1  0
  4  5  2  0
  5  6  1  0
  6  7  2  0
  7  8  1  0
  8  9  2  0
  9 10  1  0
 10 11  2  0
 11 12  1  0
 12 13  2  0
 13 14  1  0
  8 15  1  0
 15 16  2  0
 16 17  1  0
 17 18  1  0
 18 19  1  0
 19 20  1  0
 20 21  1  0
 21 22  2  0
 21 23  1  0
 20 24  1  0
 24 25  1  0
 25 26  1  0
 13  4  1  0
 26 15  1  0
 12  7  1  0
 25 17  2  0
  1 27  1  0
  1 28  1  0
  9 29  1  0
 10 30  1  0
 11 31  1  0
 14 32  1  0
 14 33  1  0
 16 34  1  0
 18 35  1  0
 18 36  1  0
 19 37  1  0
 19 38  1  0
 23 39  1  0
 23 40  1  0
 23 41  1  0
M  END
$$$$
confid_1
     RDKit          3D

 41 44  0  0  0  0  0  0  0  0999 V2000
   24.5500   26.3900   36.2500 N   0  0  0  0  0  0  0  0  0  0  0  0
   25.6000   26.1300   35.4000 C   0  0  0  0  0  0  0  0  0  0  0  0
   25.4300   25.4300   34.4200 O   0  0  0  0  0  0  0  0  0  0  0  0
   26.9800   26.6300   35.7100 C   0  0  0  0  0  0  0  0  0  0  0  0
   27.3200   26.8200   36.9800 N   0  0  0  0  0  0  0  0  0  0  0  0
   28.4700   27.4000   37.3100 N   0  0  0  0  0  0  0  0  0  0  0  0
   29.4000   27.6300   36.3700 C   0  0  0  0  0  0  0  0  0  0  0  0
   30.6600   28.0500   36.8000 C   0  0  0  0  0  0  0  0  0  0  0  0
   31.5700   28.3600   35.7800 C   0  0  0  0  0  0  0  0  0  0  0  0
   31.3700   28.1000   34.4300 C   0  0  0  0  0  0  0  0  0  0  0  0
   30.1200   27.5900   34.0500 C   0  0  0  0  0  0  0  0  0  0  0  0
   29.1500   27.3400   35.0300 C   0  0  0  0  0  0  0  0  0  0  0  0
   27.8800   26.8900   34.6600 C   0  0  0  0  0  0  0  0  0  0  0  0
   27.4800   26.6100   33.3700 N   0  0  0  0  0  0  0  0  0  0  0  0
   31.0188   28.2816   38.2216 C   0  0  0  0  0  0  0  0  0  0  0  0
   30.6305   27.4967   39.3135 C   0  0  0  0  0  0  0  0  0  0  0  0
   31.1621   27.9541   40.5240 C   0  0  0  0  0  0  0  0  0  0  0  0
   30.8583   27.4073   41.8829 C   0  0  0  0  0  0  0  0  0  0  0  0
   31.9871   27.7428   42.8800 C   0  0  0  0  0  0  0  0  0  0  0  0
   32.4680   29.1341   42.7282 N   0  0  0  0  0  0  0  0  0  0  0  0
   33.0866   29.8427   43.8166 C   0  0  0  0  0  0  0  0  0  0  0  0
   33.4862   31.0243   43.6356 O   0  0  0  0  0  0  0  0  0  0  0  0
   33.2590   29.2230   45.1708 C   0  0  0  0  0  0  0  0  0  0  0  0
   32.5374   29.7073   41.4675 O   0  0  0  0  0  0  0  0  0  0  0  0
   31.9338   29.0807   40.3852 C   0  0  0  0  0  0  0  0  0  0  0  0
   32.0154   29.5364   38.7752 S   0  0  0  0  0  0  0  0  0  0  0  0
   23.6001   26.0040   36.0504 H   0  0  0  0  0  0  0  0  0  0  0  0
   24.6740   26.9931   37.0934 H   0  0  0  0  0  0  0  0  0  0  0  0
   32.5397   28.7555   36.0554 H   0  0  0  0  0  0  0  0  0  0  0  0
   32.1368   28.3110   33.6957 H   0  0  0  0  0  0  0  0  0  0  0  0
   29.9368   27.3914   33.0017 H   0  0  0  0  0  0  0  0  0  0  0  0
   27.5828   27.3393   32.6300 H   0  0  0  0  0  0  0  0  0  0  0  0
   27.4181   25.6173   33.0515 H   0  0  0  0  0  0  0  0  0  0  0  0
   30.0024   26.6189   39.2403 H   0  0  0  0  0  0  0  0  0  0  0  0
   30.7250   26.3054   41.8293 H   0  0  0  0  0  0  0  0  0  0  0  0
   29.9080   27.8597   42.2393 H   0  0  0  0  0  0  0  0  0  0  0  0
   32.8404   27.0510   42.7117 H   0  0  0  0  0  0  0  0  0  0  0  0
   31.5963   27.5695   43.9046 H   0  0  0  0  0  0  0  0  0  0  0  0
   33.7452   28.2298   45.0752 H   0  0  0  0  0  0  0  0  0  0  0  0
   33.8995   29.8648   45.8125 H   0  0  0  0  0  0  0  0  0  0  0  0
   32.2690   29.1102   45.6597 H   0  0  0  0  0  0  0  0  0  0  0  0
  1  2  1  0
  2  3  2  0
  2  4  1  0
  4  5  2  0
  5  6  1  0
  6  7  2  0
  7  8  1  0
  8  9  2  0
  9 10  1  0
 10 11  2  0
 11 12  1  0
 12 13  2  0
 13 14  1  0
  8 15  1  0
 15 16  2  0
 16 17  1  0
 17 18  1  0
 18 19  1  0
 19 20  1  0
 20 21  1  0
 21 22  2  0
 21 23  1  0
 20 24  1  0
 24 25  1  0
 25 26  1  0
 13  4  1  0
 26 15  1  0
 12  7  1  0
 25 17  2  0
  1 27  1  0
  1 28  1  0
  9 29  1  0
 10 30  1  0
 11 31  1  0
 14 32  1  0
 14 33  1  0
 16 34  1  0
 18 35  1  0
 18 36  1  0
 19 37  1  0
 19 38  1  0
 23 39  1  0
 23 40  1  0
 23 41  1  0
M  END
$$$$
confid_2
     RDKit          3D

 41 44  0  0  0  0  0  0  0  0999 V2000
   24.5500   26.3900   36.2500 N   0  0  0  0  0  0  0  0  0  0  0  0
   25.6000   26.1300   35.4000 C   0  0  0  0  0  0  0  0  0  0  0  0
   25.4300   25.4300   34.4200 O   0  0  0  0  0  0  0  0  0  0  0  0
   26.9800   26.6300   35.7100 C   0  0  0  0  0  0  0  0  0  0  0  0
   27.3200   26.8200   36.9800 N   0  0  0  0  0  0  0  0  0  0  0  0
   28.4700   27.4000   37.3100 N   0  0  0  0  0  0  0  0  0  0  0  0
   29.4000   27.6300   36.3700 C   0  0  0  0  0  0  0  0  0  0  0  0
   30.6600   28.0500   36.8000 C   0  0  0  0  0  0  0  0  0  0  0  0
   31.5700   28.3600   35.7800 C   0  0  0  0  0  0  0  0  0  0  0  0
   31.3700   28.1000   34.4300 C   0  0  0  0  0  0  0  0  0  0  0  0
   30.1200   27.5900   34.0500 C   0  0  0  0  0  0  0  0  0  0  0  0
   29.1500   27.3400   35.0300 C   0  0  0  0  0  0  0  0  0  0  0  0
   27.8800   26.8900   34.6600 C   0  0  0  0  0  0  0  0  0  0  0  0
   27.4800   26.6100   33.3700 N   0  0  0  0  0  0  0  0  0  0  0  0
   31.0186   28.2819   38.2216 C   0  0  0  0  0  0  0  0  0  0  0  0
   30.6304   27.4968   39.3134 C   0  0  0  0  0  0  0  0  0  0  0  0
   31.1617   27.9542   40.5241 C   0  0  0  0  0  0  0  0  0  0  0  0
   30.8604   27.4042   41.8833 C   0  0  0  0  0  0  0  0  0  0  0  0
   31.9907   27.7418   42.8779 C   0  0  0  0  0  0  0  0  0  0  0  0
   32.4595   29.1356   42.7275 N   0  0  0  0  0  0  0  0  0  0  0  0
   33.0493   29.8340   43.8362 C   0  0  0  0  0  0  0  0  0  0  0  0
   33.1435   29.2779   44.9640 O   0  0  0  0  0  0  0  0  0  0  0  0
   33.5745   31.2236   43.6603 C   0  0  0  0  0  0  0  0  0  0  0  0
   32.5366   29.7085   41.4674 O   0  0  0  0  0  0  0  0  0  0  0  0
   31.9337   29.0814   40.3849 C   0  0  0  0  0  0  0  0  0  0  0  0
   32.0152   29.5370   38.7749 S   0  0  0  0  0  0  0  0  0  0  0  0
   23.6001   26.0040   36.0503 H   0  0  0  0  0  0  0  0  0  0  0  0
   24.6739   26.9931   37.0934 H   0  0  0  0  0  0  0  0  0  0  0  0
   32.5392   28.7567   36.0553 H   0  0  0  0  0  0  0  0  0  0  0  0
   32.1349   28.3164   33.6953 H   0  0  0  0  0  0  0  0  0  0  0  0
   29.9376   27.4171   32.9984 H   0  0  0  0  0  0  0  0  0  0  0  0
   28.1242   26.1386   32.6978 H   0  0  0  0  0  0  0  0  0  0  0  0
   26.5962   27.0149   32.9873 H   0  0  0  0  0  0  0  0  0  0  0  0
   30.0031   26.6185   39.2401 H   0  0  0  0  0  0  0  0  0  0  0  0
   29.9098   27.8538   42.2423 H   0  0  0  0  0  0  0  0  0  0  0  0
   30.7303   26.3020   41.8284 H   0  0  0  0  0  0  0  0  0  0  0  0
   32.8483   27.0573   42.7015 H   0  0  0  0  0  0  0  0  0  0  0  0
   31.6128   27.5645   43.9080 H   0  0  0  0  0  0  0  0  0  0  0  0
   32.7816   31.8714   43.2313 H   0  0  0  0  0  0  0  0  0  0  0  0
   33.8929   31.6481   44.6362 H   0  0  0  0  0  0  0  0  0  0  0  0
   34.4462   31.2069   42.9735 H   0  0  0  0  0  0  0  0  0  0  0  0
  1  2  1  0
  2  3  2  0
  2  4  1  0
  4  5  2  0
  5  6  1  0
  6  7  2  0
  7  8  1  0
  8  9  2  0
  9 10  1  0
 10 11  2  0
 11 12  1  0
 12 13  2  0
 13 14  1  0
  8 15  1  0
 15 16  2  0
 16 17  1  0
 17 18  1  0
 18 19  1  0
 19 20  1  0
 20 21  1  0
 21 22  2  0
 21 23  1  0
 20 24  1  0
 24 25  1  0
 25 26  1  0
 13  4  1  0
 26 15  1  0
 12  7  1  0
 25 17  2  0
  1 27  1  0
  1 28  1  0
  9 29  1  0
 10 30  1  0
 11 31  1  0
 14 32  1  0
 14 33  1  0
 16 34  1  0
 18 35  1  0
 18 36  1  0
 19 37  1  0
 19 38  1  0
 23 39  1  0
 23 40  1  0
 23 41  1  0
M  END
$$$$
confid_3
     RDKit          3D

 41 44  0  0  0  0  0  0  0  0999 V2000
   24.5500   26.3900   36.2500 N   0  0  0  0  0  0  0  0  0  0  0  0
   25.6000   26.1300   35.4000 C   0  0  0  0  0  0  0  0  0  0  0  0
   25.4300   25.4300   34.4200 O   0  0  0  0  0  0  0  0  0  0  0  0
   26.9800   26.6300   35.7100 C   0  0  0  0  0  0  0  0  0  0  0  0
   27.3200   26.8200   36.9800 N   0  0  0  0  0  0  0  0  0  0  0  0
   28.4700   27.4000   37.3100 N   0  0  0  0  0  0  0  0  0  0  0  0
   29.4000   27.6300   36.3700 C   0  0  0  0  0  0  0  0  0  0  0  0
   30.6600   28.0500   36.8000 C   0  0  0  0  0  0  0  0  0  0  0  0
   31.5700   28.3600   35.7800 C   0  0  0  0  0  0  0  0  0  0  0  0
   31.3700   28.1000   34.4300 C   0  0  0  0  0  0  0  0  0  0  0  0
   30.1200   27.5900   34.0500 C   0  0  0  0  0  0  0  0  0  0  0  0
   29.1500   27.3400   35.0300 C   0  0  0  0  0  0  0  0  0  0  0  0
   27.8800   26.8900   34.6600 C   0  0  0  0  0  0  0  0  0  0  0  0
   27.4800   26.6100   33.3700 N   0  0  0  0  0  0  0  0  0  0  0  0
   31.0159   28.2727   38.2257 C   0  0  0  0  0  0  0  0  0  0  0  0
   31.8860   29.2598   38.7030 C   0  0  0  0  0  0  0  0  0  0  0  0
   32.0647   29.2020   40.0894 C   0  0  0  0  0  0  0  0  0  0  0  0
   33.0053   30.0434   40.8926 C   0  0  0  0  0  0  0  0  0  0  0  0
   32.5657   30.1075   42.3703 C   0  0  0  0  0  0  0  0  0  0  0  0
   32.1308   28.7876   42.8789 N   0  0  0  0  0  0  0  0  0  0  0  0
   32.1881   28.4611   44.2787 C   0  0  0  0  0  0  0  0  0  0  0  0
   31.8003   27.3252   44.6636 O   0  0  0  0  0  0  0  0  0  0  0  0
   32.7108   29.4280   45.2982 C   0  0  0  0  0  0  0  0  0  0  0  0
   31.4477   27.9162   42.0442 O   0  0  0  0  0  0  0  0  0  0  0  0
   31.3814   28.1689   40.6803 C   0  0  0  0  0  0  0  0  0  0  0  0
   30.5143   27.3123   39.5315 S   0  0  0  0  0  0  0  0  0  0  0  0
   23.6001   26.0040   36.0503 H   0  0  0  0  0  0  0  0  0  0  0  0
   24.6739   26.9931   37.0934 H   0  0  0  0  0  0  0  0  0  0  0  0
   32.5426   28.7490   36.0527 H   0  0  0  0  0  0  0  0  0  0  0  0
   32.1356   28.3147   33.6954 H   0  0  0  0  0  0  0  0  0  0  0  0
   29.9377   27.4167   32.9984 H   0  0  0  0  0  0  0  0  0  0  0  0
   26.5962   27.0149   32.9873 H   0  0  0  0  0  0  0  0  0  0  0  0
   28.1242   26.1386   32.6979 H   0  0  0  0  0  0  0  0  0  0  0  0
   32.3734   29.9939   38.0748 H   0  0  0  0  0  0  0  0  0  0  0  0
   33.0498   31.0714   40.4730 H   0  0  0  0  0  0  0  0  0  0  0  0
   34.0195   29.5937   40.8311 H   0  0  0  0  0  0  0  0  0  0  0  0
   33.4213   30.4962   42.9615 H   0  0  0  0  0  0  0  0  0  0  0  0
   31.7211   30.8230   42.4693 H   0  0  0  0  0  0  0  0  0  0  0  0
   32.5168   29.0517   46.3252 H   0  0  0  0  0  0  0  0  0  0  0  0
   33.8059   29.5532   45.1686 H   0  0  0  0  0  0  0  0  0  0  0  0
   32.2053   30.4097   45.1853 H   0  0  0  0  0  0  0  0  0  0  0  0
  1  2  1  0
  2  3  2  0
  2  4  1  0
  4  5  2  0
  5  6  1  0
  6  7  2  0
  7  8  1  0
  8  9  2  0
  9 10  1  0
 10 11  2  0
 11 12  1  0
 12 13  2  0
 13 14  1  0
  8 15  1  0
 15 16  2  0
 16 17  1  0
 17 18  1  0
 18 19  1  0
 19 20  1  0
 20 21  1  0
 21 22  2  0
 21 23  1  0
 20 24  1  0
 24 25  1  0
 25 26  1  0
 13  4  1  0
 26 15  1  0
 12  7  1  0
 25 17  2  0
  1 27  1  0
  1 28  1  0
  9 29  1  0
 10 30  1  0
 11 31  1  0
 14 32  1  0
 14 33  1  0
 16 34  1  0
 18 35  1  0
 18 36  1  0
 19 37  1  0
 19 38  1  0
 23 39  1  0
 23 40  1  0
 23 41  1  0
M  END
$$$$
confid_4
     RDKit          3D

 41 44  0  0  0  0  0  0  0  0999 V2000
   24.5500   26.3900   36.2500 N   0  0  0  0  0  0  0  0  0  0  0  0
   25.6000   26.1300   35.4000 C   0  0  0  0  0  0  0  0  0  0  0  0
   25.4300   25.4300   34.4200 O   0  0  0  0  0  0  0  0  0  0  0  0
   26.9800   26.6300   35.7100 C   0  0  0  0  0  0  0  0  0  0  0  0
   27.3200   26.8200   36.9800 N   0  0  0  0  0  0  0  0  0  0  0  0
   28.4700   27.4000   37.3100 N   0  0  0  0  0  0  0  0  0  0  0  0
   29.4000   27.6300   36.3700 C   0  0  0  0  0  0  0  0  0  0  0  0
   30.6600   28.0500   36.8000 C   0  0  0  0  0  0  0  0  0  0  0  0
   31.5700   28.3600   35.7800 C   0  0  0  0  0  0  0  0  0  0  0  0
   31.3700   28.1000   34.4300 C   0  0  0  0  0  0  0  0  0  0  0  0
   30.1200   27.5900   34.0500 C   0  0  0  0  0  0  0  0  0  0  0  0
   29.1500   27.3400   35.0300 C   0  0  0  0  0  0  0  0  0  0  0  0
   27.8800   26.8900   34.6600 C   0  0  0  0  0  0  0  0  0  0  0  0
   27.4800   26.6100   33.3700 N   0  0  0  0  0  0  0  0  0  0  0  0
   31.0175   28.3060   38.2204 C   0  0  0  0  0  0  0  0  0  0  0  0
   32.3007   28.1750   38.7633 C   0  0  0  0  0  0  0  0  0  0  0  0
   32.3565   28.5203   40.1180 C   0  0  0  0  0  0  0  0  0  0  0  0
   33.5916   28.5857   40.9611 C   0  0  0  0  0  0  0  0  0  0  0  0
   33.2434   28.4574   42.4588 C   0  0  0  0  0  0  0  0  0  0  0  0
   32.0556   29.2598   42.8196 N   0  0  0  0  0  0  0  0  0  0  0  0
   31.8796   29.7464   44.1601 C   0  0  0  0  0  0  0  0  0  0  0  0
   32.7548   29.5237   45.0403 O   0  0  0  0  0  0  0  0  0  0  0  0
   30.6470   30.5083   44.5314 C   0  0  0  0  0  0  0  0  0  0  0  0
   30.9966   29.3686   41.9314 O   0  0  0  0  0  0  0  0  0  0  0  0
   31.1513   28.9493   40.6165 C   0  0  0  0  0  0  0  0  0  0  0  0
   29.9755   28.8920   39.4253 S   0  0  0  0  0  0  0  0  0  0  0  0
   23.6001   26.0039   36.0504 H   0  0  0  0  0  0  0  0  0  0  0  0
   24.6739   26.9931   37.0934 H   0  0  0  0  0  0  0  0  0  0  0  0
   32.5297   28.7816   36.0515 H   0  0  0  0  0  0  0  0  0  0  0  0
   32.1344   28.3171   33.6950 H   0  0  0  0  0  0  0  0  0  0  0  0
   29.9363   27.3928   33.0016 H   0  0  0  0  0  0  0  0  0  0  0  0
   27.5825   27.3394   32.6301 H   0  0  0  0  0  0  0  0  0  0  0  0
   27.4182   25.6173   33.0515 H   0  0  0  0  0  0  0  0  0  0  0  0
   33.1641   27.8440   38.2009 H   0  0  0  0  0  0  0  0  0  0  0  0
   34.0887   29.5633   40.7828 H   0  0  0  0  0  0  0  0  0  0  0  0
   34.2941   27.7749   40.6717 H   0  0  0  0  0  0  0  0  0  0  0  0
   34.1276   28.7785   43.0508 H   0  0  0  0  0  0  0  0  0  0  0  0
   33.0374   27.3912   42.6953 H   0  0  0  0  0  0  0  0  0  0  0  0
   30.5134   31.3643   43.8374 H   0  0  0  0  0  0  0  0  0  0  0  0
   29.7633   29.8401   44.4643 H   0  0  0  0  0  0  0  0  0  0  0  0
   30.7255   30.8986   45.5684 H   0  0  0  0  0  0  0  0  0  0  0  0
  1  2  1  0
  2  3  2  0
  2  4  1  0
  4  5  2  0
  5  6  1  0
  6  7  2  0
  7  8  1  0
  8  9  2  0
  9 10  1  0
 10 11  2  0
 11 12  1  0
 12 13  2  0
 13 14  1  0
  8 15  1  0
 15 16  2  0
 16 17  1  0
 17 18  1  0
 18 19  1  0
 19 20  1  0
 20 21  1  0
 21 22  2  0
 21 23  1  0
 20 24  1  0
 24 25  1  0
 25 26  1  0
 13  4  1  0
 26 15  1  0
 12  7  1  0
 25 17  2  0
  1 27  1  0
  1 28  1  0
  9 29  1  0
 10 30  1  0
 11 31  1  0
 14 32  1  0
 14 33  1  0
 16 34  1  0
 18 35  1  0
 18 36  1  0
 19 37  1  0
 19 38  1  0
 23 39  1  0
 23 40  1  0
 23 41  1  0
M  END
$$$$
confid_5
     RDKit          3D

 41 44  0  0  0  0  0  0  0  0999 V2000
   24.5500   26.3900   36.2500 N   0  0  0  0  0  0  0  0  0  0  0  0
   25.6000   26.1300   35.4000 C   0  0  0  0  0  0  0  0  0  0  0  0
   25.4300   25.4300   34.4200 O   0  0  0  0  0  0  0  0  0  0  0  0
   26.9800   26.6300   35.7100 C   0  0  0  0  0  0  0  0  0  0  0  0
   27.3200   26.8200   36.9800 N   0  0  0  0  0  0  0  0  0  0  0  0
   28.4700   27.4000   37.3100 N   0  0  0  0  0  0  0  0  0  0  0  0
   29.4000   27.6300   36.3700 C   0  0  0  0  0  0  0  0  0  0  0  0
   30.6600   28.0500   36.8000 C   0  0  0  0  0  0  0  0  0  0  0  0
   31.5700   28.3600   35.7800 C   0  0  0  0  0  0  0  0  0  0  0  0
   31.3700   28.1000   34.4300 C   0  0  0  0  0  0  0  0  0  0  0  0
   30.1200   27.5900   34.0500 C   0  0  0  0  0  0  0  0  0  0  0  0
   29.1500   27.3400   35.0300 C   0  0  0  0  0  0  0  0  0  0  0  0
   27.8800   26.8900   34.6600 C   0  0  0  0  0  0  0  0  0  0  0  0
   27.4800   26.6100   33.3700 N   0  0  0  0  0  0  0  0  0  0  0  0
   31.0187   28.2731   38.2252 C   0  0  0  0  0  0  0  0  0  0  0  0
   31.8817   29.2677   38.6994 C   0  0  0  0  0  0  0  0  0  0  0  0
   32.0709   29.2078   40.0844 C   0  0  0  0  0  0  0  0  0  0  0  0
   32.8341   30.1917   40.9133 C   0  0  0  0  0  0  0  0  0  0  0  0
   33.2973   29.5552   42.2405 C   0  0  0  0  0  0  0  0  0  0  0  0
   32.2391   28.7257   42.8586 N   0  0  0  0  0  0  0  0  0  0  0  0
   32.2050   28.4771   44.2751 C   0  0  0  0  0  0  0  0  0  0  0  0
   31.2865   27.7585   44.7533 O   0  0  0  0  0  0  0  0  0  0  0  0
   33.2235   29.0603   45.2078 C   0  0  0  0  0  0  0  0  0  0  0  0
   31.3850   27.9844   42.0562 O   0  0  0  0  0  0  0  0  0  0  0  0
   31.3574   28.2009   40.6848 C   0  0  0  0  0  0  0  0  0  0  0  0
   30.4959   27.3349   39.5388 S   0  0  0  0  0  0  0  0  0  0  0  0
   23.6001   26.0040   36.0503 H   0  0  0  0  0  0  0  0  0  0  0  0
   24.6739   26.9931   37.0934 H   0  0  0  0  0  0  0  0  0  0  0  0
   32.5424   28.7495   36.0531 H   0  0  0  0  0  0  0  0  0  0  0  0
   32.1355   28.3148   33.6954 H   0  0  0  0  0  0  0  0  0  0  0  0
   29.9377   27.4167   32.9984 H   0  0  0  0  0  0  0  0  0  0  0  0
   26.5962   27.0149   32.9873 H   0  0  0  0  0  0  0  0  0  0  0  0
   28.1242   26.1386   32.6979 H   0  0  0  0  0  0  0  0  0  0  0  0
   32.3387   30.0222   38.0725 H   0  0  0  0  0  0  0  0  0  0  0  0
   32.1710   31.0558   41.1328 H   0  0  0  0  0  0  0  0  0  0  0  0
   33.7179   30.5604   40.3494 H   0  0  0  0  0  0  0  0  0  0  0  0
   34.1848   28.9147   42.0481 H   0  0  0  0  0  0  0  0  0  0  0  0
   33.6031   30.3771   42.9214 H   0  0  0  0  0  0  0  0  0  0  0  0
   34.2469   28.8443   44.8362 H   0  0  0  0  0  0  0  0  0  0  0  0
   33.0763   30.1576   45.2841 H   0  0  0  0  0  0  0  0  0  0  0  0
   33.1197   28.6179   46.2215 H   0  0  0  0  0  0  0  0  0  0  0  0
  1  2  1  0
  2  3  2  0
  2  4  1  0
  4  5  2  0
  5  6  1  0
  6  7  2  0
  7  8  1  0
  8  9  2  0
  9 10  1  0
 10 11  2  0
 11 12  1  0
 12 13  2  0
 13 14  1  0
  8 15  1  0
 15 16  2  0
 16 17  1  0
 17 18  1  0
 18 19  1  0
 19 20  1  0
 20 21  1  0
 21 22  2  0
 21 23  1  0
 20 24  1  0
 24 25  1  0
 25 26  1  0
 13  4  1  0
 26 15  1  0
 12  7  1  0
 25 17  2  0
  1 27  1  0
  1 28  1  0
  9 29  1  0
 10 30  1  0
 11 31  1  0
 14 32  1  0
 14 33  1  0
 16 34  1  0
 18 35  1  0
 18 36  1  0
 19 37  1  0
 19 38  1  0
 23 39  1  0
 23 40  1  0
 23 41  1  0
M  END
$$$$
confid_6
     RDKit          3D

 41 44  0  0  0  0  0  0  0  0999 V2000
   24.5500   26.3900   36.2500 N   0  0  0  0  0  0  0  0  0  0  0  0
   25.6000   26.1300   35.4000 C   0  0  0  0  0  0  0  0  0  0  0  0
   25.4300   25.4300   34.4200 O   0  0  0  0  0  0  0  0  0  0  0  0
   26.9800   26.6300   35.7100 C   0  0  0  0  0  0  0  0  0  0  0  0
   27.3200   26.8200   36.9800 N   0  0  0  0  0  0  0  0  0  0  0  0
   28.4700   27.4000   37.3100 N   0  0  0  0  0  0  0  0  0  0  0  0
   29.4000   27.6300   36.3700 C   0  0  0  0  0  0  0  0  0  0  0  0
   30.6600   28.0500   36.8000 C   0  0  0  0  0  0  0  0  0  0  0  0
   31.5700   28.3600   35.7800 C   0  0  0  0  0  0  0  0  0  0  0  0
   31.3700   28.1000   34.4300 C   0  0  0  0  0  0  0  0  0  0  0  0
   30.1200   27.5900   34.0500 C   0  0  0  0  0  0  0  0  0  0  0  0
   29.1500   27.3400   35.0300 C   0  0  0  0  0  0  0  0  0  0  0  0
   27.8800   26.8900   34.6600 C   0  0  0  0  0  0  0  0  0  0  0  0
   27.4800   26.6100   33.3700 N   0  0  0  0  0  0  0  0  0  0  0  0
   31.0160   28.2727   38.2257 C   0  0  0  0  0  0  0  0  0  0  0  0
   31.8858   29.2601   38.7028 C   0  0  0  0  0  0  0  0  0  0  0  0
   32.0647   29.2026   40.0893 C   0  0  0  0  0  0  0  0  0  0  0  0
   33.0029   30.0477   40.8930 C   0  0  0  0  0  0  0  0  0  0  0  0
   32.5607   30.1095   42.3699 C   0  0  0  0  0  0  0  0  0  0  0  0
   32.1371   28.7863   42.8746 N   0  0  0  0  0  0  0  0  0  0  0  0
   32.2289   28.4719   44.2736 C   0  0  0  0  0  0  0  0  0  0  0  0
   32.7049   29.3102   45.0866 O   0  0  0  0  0  0  0  0  0  0  0  0
   31.7442   27.1521   44.7846 C   0  0  0  0  0  0  0  0  0  0  0  0
   31.4477   27.9160   42.0441 O   0  0  0  0  0  0  0  0  0  0  0  0
   31.3809   28.1689   40.6803 C   0  0  0  0  0  0  0  0  0  0  0  0
   30.5142   27.3122   39.5314 S   0  0  0  0  0  0  0  0  0  0  0  0
   24.6739   26.9931   37.0934 H   0  0  0  0  0  0  0  0  0  0  0  0
   23.6001   26.0040   36.0503 H   0  0  0  0  0  0  0  0  0  0  0  0
   32.5426   28.7490   36.0527 H   0  0  0  0  0  0  0  0  0  0  0  0
   32.1356   28.3147   33.6954 H   0  0  0  0  0  0  0  0  0  0  0  0
   29.9377   27.4167   32.9984 H   0  0  0  0  0  0  0  0  0  0  0  0
   28.1242   26.1386   32.6979 H   0  0  0  0  0  0  0  0  0  0  0  0
   26.5962   27.0149   32.9873 H   0  0  0  0  0  0  0  0  0  0  0  0
   32.3724   29.9947   38.0746 H   0  0  0  0  0  0  0  0  0  0  0  0
   34.0187   29.6015   40.8329 H   0  0  0  0  0  0  0  0  0  0  0  0
   33.0441   31.0760   40.4737 H   0  0  0  0  0  0  0  0  0  0  0  0
   31.7085   30.8163   42.4663 H   0  0  0  0  0  0  0  0  0  0  0  0
   33.4079   30.5051   42.9710 H   0  0  0  0  0  0  0  0  0  0  0  0
   30.6437   27.0859   44.6564 H   0  0  0  0  0  0  0  0  0  0  0  0
   31.9890   27.0356   45.8618 H   0  0  0  0  0  0  0  0  0  0  0  0
   32.2299   26.3306   44.2176 H   0  0  0  0  0  0  0  0  0  0  0  0
  1  2  1  0
  2  3  2  0
  2  4  1  0
  4  5  2  0
  5  6  1  0
  6  7  2  0
  7  8  1  0
  8  9  2  0
  9 10  1  0
 10 11  2  0
 11 12  1  0
 12 13  2  0
 13 14  1  0
  8 15  1  0
 15 16  2  0
 16 17  1  0
 17 18  1  0
 18 19  1  0
 19 20  1  0
 20 21  1  0
 21 22  2  0
 21 23  1  0
 20 24  1  0
 24 25  1  0
 25 26  1  0
 13  4  1  0
 26 15  1  0
 12  7  1  0
 25 17  2  0
  1 27  1  0
  1 28  1  0
  9 29  1  0
 10 30  1  0
 11 31  1  0
 14 32  1  0
 14 33  1  0
 16 34  1  0
 18 35  1  0
 18 36  1  0
 19 37  1  0
 19 38  1  0
 23 39  1  0
 23 40  1  0
 23 41  1  0
M  END
$$$$
confid_7
     RDKit          3D

 41 44  0  0  0  0  0  0  0  0999 V2000
   24.5500   26.3900   36.2500 N   0  0  0  0  0  0  0  0  0  0  0  0
   25.6000   26.1300   35.4000 C   0  0  0  0  0  0  0  0  0  0  0  0
   25.4300   25.4300   34.4200 O   0  0  0  0  0  0  0  0  0  0  0  0
   26.9800   26.6300   35.7100 C   0  0  0  0  0  0  0  0  0  0  0  0
   27.3200   26.8200   36.9800 N   0  0  0  0  0  0  0  0  0  0  0  0
   28.4700   27.4000   37.3100 N   0  0  0  0  0  0  0  0  0  0  0  0
   29.4000   27.6300   36.3700 C   0  0  0  0  0  0  0  0  0  0  0  0
   30.6600   28.0500   36.8000 C   0  0  0  0  0  0  0  0  0  0  0  0
   31.5700   28.3600   35.7800 C   0  0  0  0  0  0  0  0  0  0  0  0
   31.3700   28.1000   34.4300 C   0  0  0  0  0  0  0  0  0  0  0  0
   30.1200   27.5900   34.0500 C   0  0  0  0  0  0  0  0  0  0  0  0
   29.1500   27.3400   35.0300 C   0  0  0  0  0  0  0  0  0  0  0  0
   27.8800   26.8900   34.6600 C   0  0  0  0  0  0  0  0  0  0  0  0
   27.4800   26.6100   33.3700 N   0  0  0  0  0  0  0  0  0  0  0  0
   31.0205   28.3068   38.2162 C   0  0  0  0  0  0  0  0  0  0  0  0
   30.1935   28.8531   39.2049 C   0  0  0  0  0  0  0  0  0  0  0  0
   30.8471   29.0036   40.4327 C   0  0  0  0  0  0  0  0  0  0  0  0
   30.2226   29.4607   41.7141 C   0  0  0  0  0  0  0  0  0  0  0  0
   31.2870   30.0345   42.6724 C   0  0  0  0  0  0  0  0  0  0  0  0
   32.5112   29.2064   42.6964 N   0  0  0  0  0  0  0  0  0  0  0  0
   33.3615   29.1887   43.8547 C   0  0  0  0  0  0  0  0  0  0  0  0
   33.0558   29.8540   44.8814 O   0  0  0  0  0  0  0  0  0  0  0  0
   34.6289   28.3942   43.8492 C   0  0  0  0  0  0  0  0  0  0  0  0
   32.9681   28.6114   41.5305 O   0  0  0  0  0  0  0  0  0  0  0  0
   32.1497   28.5693   40.4094 C   0  0  0  0  0  0  0  0  0  0  0  0
   32.5523   28.0156   38.8805 S   0  0  0  0  0  0  0  0  0  0  0  0
   23.6001   26.0040   36.0503 H   0  0  0  0  0  0  0  0  0  0  0  0
   24.6739   26.9932   37.0933 H   0  0  0  0  0  0  0  0  0  0  0  0
   32.5312   28.7765   36.0554 H   0  0  0  0  0  0  0  0  0  0  0  0
   32.1331   28.3210   33.6948 H   0  0  0  0  0  0  0  0  0  0  0  0
   29.9372   27.4182   32.9982 H   0  0  0  0  0  0  0  0  0  0  0  0
   28.1243   26.1388   32.6978 H   0  0  0  0  0  0  0  0  0  0  0  0
   26.5962   27.0149   32.9873 H   0  0  0  0  0  0  0  0  0  0  0  0
   29.1660   29.1512   39.0460 H   0  0  0  0  0  0  0  0  0  0  0  0
   29.7277   28.5899   42.1949 H   0  0  0  0  0  0  0  0  0  0  0  0
   29.4520   30.2344   41.5080 H   0  0  0  0  0  0  0  0  0  0  0  0
   30.8405   30.1033   43.6880 H   0  0  0  0  0  0  0  0  0  0  0  0
   31.5585   31.0608   42.3437 H   0  0  0  0  0  0  0  0  0  0  0  0
   34.4094   27.3423   43.5705 H   0  0  0  0  0  0  0  0  0  0  0  0
   35.3364   28.8289   43.1128 H   0  0  0  0  0  0  0  0  0  0  0  0
   35.1024   28.4057   44.8539 H   0  0  0  0  0  0  0  0  0  0  0  0
  1  2  1  0
  2  3  2  0
  2  4  1  0
  4  5  2  0
  5  6  1  0
  6  7  2  0
  7  8  1  0
  8  9  2  0
  9 10  1  0
 10 11  2  0
 11 12  1  0
 12 13  2  0
 13 14  1  0
  8 15  1  0
 15 16  2  0
 16 17  1  0
 17 18  1  0
 18 19  1  0
 19 20  1  0
 20 21  1  0
 21 22  2  0
 21 23  1  0
 20 24  1  0
 24 25  1  0
 25 26  1  0
 13  4  1  0
 26 15  1  0
 12  7  1  0
 25 17  2  0
  1 27  1  0
  1 28  1  0
  9 29  1  0
 10 30  1  0
 11 31  1  0
 14 32  1  0
 14 33  1  0
 16 34  1  0
 18 35  1  0
 18 36  1  0
 19 37  1  0
 19 38  1  0
 23 39  1  0
 23 40  1  0
 23 41  1  0
M  END
$$$$
confid_8
     RDKit          3D

 41 44  0  0  0  0  0  0  0  0999 V2000
   24.5500   26.3900   36.2500 N   0  0  0  0  0  0  0  0  0  0  0  0
   25.6000   26.1300   35.4000 C   0  0  0  0  0  0  0  0  0  0  0  0
   25.4300   25.4300   34.4200 O   0  0  0  0  0  0  0  0  0  0  0  0
   26.9800   26.6300   35.7100 C   0  0  0  0  0  0  0  0  0  0  0  0
   27.3200   26.8200   36.9800 N   0  0  0  0  0  0  0  0  0  0  0  0
   28.4700   27.4000   37.3100 N   0  0  0  0  0  0  0  0  0  0  0  0
   29.4000   27.6300   36.3700 C   0  0  0  0  0  0  0  0  0  0  0  0
   30.6600   28.0500   36.8000 C   0  0  0  0  0  0  0  0  0  0  0  0
   31.5700   28.3600   35.7800 C   0  0  0  0  0  0  0  0  0  0  0  0
   31.3700   28.1000   34.4300 C   0  0  0  0  0  0  0  0  0  0  0  0
   30.1200   27.5900   34.0500 C   0  0  0  0  0  0  0  0  0  0  0  0
   29.1500   27.3400   35.0300 C   0  0  0  0  0  0  0  0  0  0  0  0
   27.8800   26.8900   34.6600 C   0  0  0  0  0  0  0  0  0  0  0  0
   27.4800   26.6100   33.3700 N   0  0  0  0  0  0  0  0  0  0  0  0
   31.0205   28.3068   38.2162 C   0  0  0  0  0  0  0  0  0  0  0  0
   30.1936   28.8528   39.2051 C   0  0  0  0  0  0  0  0  0  0  0  0
   30.8475   29.0032   40.4327 C   0  0  0  0  0  0  0  0  0  0  0  0
   30.2231   29.4560   41.7145 C   0  0  0  0  0  0  0  0  0  0  0  0
   31.2851   30.0307   42.6753 C   0  0  0  0  0  0  0  0  0  0  0  0
   32.5173   29.2115   42.6965 N   0  0  0  0  0  0  0  0  0  0  0  0
   33.3973   29.1999   43.8344 C   0  0  0  0  0  0  0  0  0  0  0  0
   34.4389   28.4908   43.8015 O   0  0  0  0  0  0  0  0  0  0  0  0
   33.1067   29.9967   45.0706 C   0  0  0  0  0  0  0  0  0  0  0  0
   32.9682   28.6116   41.5305 O   0  0  0  0  0  0  0  0  0  0  0  0
   32.1495   28.5691   40.4097 C   0  0  0  0  0  0  0  0  0  0  0  0
   32.5522   28.0156   38.8806 S   0  0  0  0  0  0  0  0  0  0  0  0
   24.6739   26.9932   37.0933 H   0  0  0  0  0  0  0  0  0  0  0  0
   23.6001   26.0040   36.0503 H   0  0  0  0  0  0  0  0  0  0  0  0
   32.5312   28.7765   36.0554 H   0  0  0  0  0  0  0  0  0  0  0  0
   32.1331   28.3210   33.6948 H   0  0  0  0  0  0  0  0  0  0  0  0
   29.9372   27.4182   32.9982 H   0  0  0  0  0  0  0  0  0  0  0  0
   28.1243   26.1388   32.6978 H   0  0  0  0  0  0  0  0  0  0  0  0
   26.5962   27.0149   32.9873 H   0  0  0  0  0  0  0  0  0  0  0  0
   29.1659   29.1502   39.0466 H   0  0  0  0  0  0  0  0  0  0  0  0
   29.7302   28.5827   42.1930 H   0  0  0  0  0  0  0  0  0  0  0  0
   29.4502   30.2279   41.5101 H   0  0  0  0  0  0  0  0  0  0  0  0
   31.5485   31.0614   42.3540 H   0  0  0  0  0  0  0  0  0  0  0  0
   30.8310   30.0875   43.6868 H   0  0  0  0  0  0  0  0  0  0  0  0
   32.2341   29.5611   45.6002 H   0  0  0  0  0  0  0  0  0  0  0  0
   32.8930   31.0521   44.8010 H   0  0  0  0  0  0  0  0  0  0  0  0
   33.9805   29.9817   45.7563 H   0  0  0  0  0  0  0  0  0  0  0  0
  1  2  1  0
  2  3  2  0
  2  4  1  0
  4  5  2  0
  5  6  1  0
  6  7  2  0
  7  8  1  0
  8  9  2  0
  9 10  1  0
 10 11  2  0
 11 12  1  0
 12 13  2  0
 13 14  1  0
  8 15  1  0
 15 16  2  0
 16 17  1  0
 17 18  1  0
 18 19  1  0
 19 20  1  0
 20 21  1  0
 21 22  2  0
 21 23  1  0
 20 24  1  0
 24 25  1  0
 25 26  1  0
 13  4  1  0
 26 15  1  0
 12  7  1  0
 25 17  2  0
  1 27  1  0
  1 28  1  0
  9 29  1  0
 10 30  1  0
 11 31  1  0
 14 32  1  0
 14 33  1  0
 16 34  1  0
 18 35  1  0
 18 36  1  0
 19 37  1  0
 19 38  1  0
 23 39  1  0
 23 40  1  0
 23 41  1  0
M  END
$$$$
