confid_0
     RDKit          3D

 40 43  0  0  0  0  0  0  0  0999 V2000
   25.3300   26.2600   34.7600 N   0  0  0  0  0  0  0  0  0  0  0  0
   26.1200   25.9200   33.6900 C   0  0  0  0  0  0  0  0  0  0  0  0
   25.6300   25.1100   32.9400 O   0  0  0  0  0  0  0  0  0  0  0  0
   27.5200   26.3800   33.4600 C   0  0  0  0  0  0  0  0  0  0  0  0
   28.1600   26.6300   34.6100 N   0  0  0  0  0  0  0  0  0  0  0  0
   29.4800   26.8500   34.5700 N   0  0  0  0  0  0  0  0  0  0  0  0
   30.1900   26.7800   33.4400 C   0  0  0  0  0  0  0  0  0  0  0  0
   31.5600   27.0500   33.5000 C   0  0  0  0  0  0  0  0  0  0  0  0
   32.2700   27.2400   32.3100 C   0  0  0  0  0  0  0  0  0  0  0  0
   31.6100   27.2500   31.0800 C   0  0  0  0  0  0  0  0  0  0  0  0
   30.2700   26.8700   31.0600 C   0  0  0  0  0  0  0  0  0  0  0  0
   29.5100   26.6900   32.2300 C   0  0  0  0  0  0  0  0  0  0  0  0
   28.1400   26.4100   32.2000 C   0  0  0  0  0  0  0  0  0  0  0  0
   27.4300   26.1300   31.0500 N   0  0  0  0  0  0  0  0  0  0  0  0
   24.2298   25.4866   35.2734 C   0  0  0  0  0  0  0  0  0  0  0  0
   23.1826   26.1344   35.8499 N   0  0  0  0  0  0  0  0  0  0  0  0
   22.1261   25.4709   36.3869 C   0  0  0  0  0  0  0  0  0  0  0  0
   22.0860   24.0690   36.3700 C   0  0  0  0  0  0  0  0  0  0  0  0
   20.9510   23.3357   37.0442 C   0  0  0  0  0  0  0  0  0  0  0  0
   20.1669   22.5111   36.0595 C   0  0  0  0  0  0  0  0  0  0  0  0
   18.9486   22.4782   36.1456 O   0  0  0  0  0  0  0  0  0  0  0  0
   20.8460   21.7327   34.9627 C   0  0  0  0  0  0  0  0  0  0  0  0
   22.1330   21.1860   35.3965 N   0  0  0  0  0  0  0  0  0  0  0  0
   23.1787   21.8876   35.7276 C   0  0  0  0  0  0  0  0  0  0  0  0
   23.1581   23.3674   35.7776 C   0  0  0  0  0  0  0  0  0  0  0  0
   24.2437   24.0823   35.2552 C   0  0  0  0  0  0  0  0  0  0  0  0
   24.3358   21.2388   36.0079 F   0  0  0  0  0  0  0  0  0  0  0  0
   25.5092   27.1868   35.2081 H   0  0  0  0  0  0  0  0  0  0  0  0
   32.0668   27.1429   34.4530 H   0  0  0  0  0  0  0  0  0  0  0  0
   33.3284   27.4627   32.3495 H   0  0  0  0  0  0  0  0  0  0  0  0
   32.1496   27.4414   30.1613 H   0  0  0  0  0  0  0  0  0  0  0  0
   29.7983   26.8254   30.0886 H   0  0  0  0  0  0  0  0  0  0  0  0
   26.4124   26.3492   30.9738 H   0  0  0  0  0  0  0  0  0  0  0  0
   27.8914   25.7239   30.2072 H   0  0  0  0  0  0  0  0  0  0  0  0
   21.3248   26.0395   36.8406 H   0  0  0  0  0  0  0  0  0  0  0  0
   21.3625   22.6656   37.8289 H   0  0  0  0  0  0  0  0  0  0  0  0
   20.2690   24.0512   37.5548 H   0  0  0  0  0  0  0  0  0  0  0  0
   20.9937   22.3897   34.0787 H   0  0  0  0  0  0  0  0  0  0  0  0
   20.1953   20.8876   34.6525 H   0  0  0  0  0  0  0  0  0  0  0  0
   25.0911   23.5477   34.8445 H   0  0  0  0  0  0  0  0  0  0  0  0
  1  2  1  0
  2  3  2  0
  2  4  1  0
  4  5  2  0
  5  6  1  0
  6  7  2  0
  7  8  1  0
  8  9  2  0
  9 10  1  0
 10 11  2  0
 11 12  1  0
 12 13  2  0
 13 14  1  0
  1 15  1  0
 15 16  2  0
 16 17  1  0
 17 18  2  0
 18 19  1  0
 19 20  1  0
 20 21  2  0
 20 22  1  0
 22 23  1  0
 23 24  2  0
 24 25  1  0
 25 26  2  0
 24 27  1  0
 13  4  1  0
 26 15  1  0
 12  7  1  0
 25 18  1  0
  1 28  1  0
  8 29  1  0
  9 30  1  0
 10 31  1  0
 11 32  1  0
 14 33  1  0
 14 34  1  0
 17 35  1  0
 19 36  1  0
 19 37  1  0
 22 38  1  0
 22 39  1  0
 26 40  1  0
M  END
$$$$
confid_1
     RDKit          3D

 40 43  0  0  0  0  0  0  0  0999 V2000
   25.3300   26.2600   34.7600 N   0  0  0  0  0  0  0  0  0  0  0  0
   26.1200   25.9200   33.6900 C   0  0  0  0  0  0  0  0  0  0  0  0
   25.6300   25.1100   32.9400 O   0  0  0  0  0  0  0  0  0  0  0  0
   27.5200   26.3800   33.4600 C   0  0  0  0  0  0  0  0  0  0  0  0
   28.1600   26.6300   34.6100 N   0  0  0  0  0  0  0  0  0  0  0  0
   29.4800   26.8500   34.5700 N   0  0  0  0  0  0  0  0  0  0  0  0
   30.1900   26.7800   33.4400 C   0  0  0  0  0  0  0  0  0  0  0  0
   31.5600   27.0500   33.5000 C   0  0  0  0  0  0  0  0  0  0  0  0
   32.2700   27.2400   32.3100 C   0  0  0  0  0  0  0  0  0  0  0  0
   31.6100   27.2500   31.0800 C   0  0  0  0  0  0  0  0  0  0  0  0
   30.2700   26.8700   31.0600 C   0  0  0  0  0  0  0  0  0  0  0  0
   29.5100   26.6900   32.2300 C   0  0  0  0  0  0  0  0  0  0  0  0
   28.1400   26.4100   32.2000 C   0  0  0  0  0  0  0  0  0  0  0  0
   27.4300   26.1300   31.0500 N   0  0  0  0  0  0  0  0  0  0  0  0
   23.8911   26.2159   34.7782 C   0  0  0  0  0  0  0  0  0  0  0  0
   23.2538   26.0257   35.9641 N   0  0  0  0  0  0  0  0  0  0  0  0
   21.8996   26.0043   36.0648 C   0  0  0  0  0  0  0  0  0  0  0  0
   21.1006   26.1886   34.9269 C   0  0  0  0  0  0  0  0  0  0  0  0
   19.5975   26.2494   35.0589 C   0  0  0  0  0  0  0  0  0  0  0  0
   18.9323   25.1405   34.2893 C   0  0  0  0  0  0  0  0  0  0  0  0
   17.9774   24.5607   34.7838 O   0  0  0  0  0  0  0  0  0  0  0  0
   19.4212   24.7197   32.9276 C   0  0  0  0  0  0  0  0  0  0  0  0
   19.9091   25.8576   32.1463 N   0  0  0  0  0  0  0  0  0  0  0  0
   20.9476   26.5860   32.4403 C   0  0  0  0  0  0  0  0  0  0  0  0
   21.7321   26.3857   33.6801 C   0  0  0  0  0  0  0  0  0  0  0  0
   23.1309   26.4267   33.6156 C   0  0  0  0  0  0  0  0  0  0  0  0
   21.3410   27.5426   31.5636 F   0  0  0  0  0  0  0  0  0  0  0  0
   25.8020   26.5564   35.6435 H   0  0  0  0  0  0  0  0  0  0  0  0
   32.0668   27.1429   34.4530 H   0  0  0  0  0  0  0  0  0  0  0  0
   33.3284   27.4627   32.3495 H   0  0  0  0  0  0  0  0  0  0  0  0
   32.1496   27.4414   30.1613 H   0  0  0  0  0  0  0  0  0  0  0  0
   29.7983   26.8254   30.0886 H   0  0  0  0  0  0  0  0  0  0  0  0
   26.4122   26.3488   30.9741 H   0  0  0  0  0  0  0  0  0  0  0  0
   27.8913   25.7243   30.2070 H   0  0  0  0  0  0  0  0  0  0  0  0
   21.4478   25.8582   37.0374 H   0  0  0  0  0  0  0  0  0  0  0  0
   19.2940   26.1929   36.1277 H   0  0  0  0  0  0  0  0  0  0  0  0
   19.2348   27.2253   34.6712 H   0  0  0  0  0  0  0  0  0  0  0  0
   18.5885   24.2438   32.3673 H   0  0  0  0  0  0  0  0  0  0  0  0
   20.2292   23.9652   33.0407 H   0  0  0  0  0  0  0  0  0  0  0  0
   23.6187   26.6250   32.6694 H   0  0  0  0  0  0  0  0  0  0  0  0
  1  2  1  0
  2  3  2  0
  2  4  1  0
  4  5  2  0
  5  6  1  0
  6  7  2  0
  7  8  1  0
  8  9  2  0
  9 10  1  0
 10 11  2  0
 11 12  1  0
 12 13  2  0
 13 14  1  0
  1 15  1  0
 15 16  2  0
 16 17  1  0
 17 18  2  0
 18 19  1  0
 19 20  1  0
 20 21  2  0
 20 22  1  0
 22 23  1  0
 23 24  2  0
 24 25  1  0
 25 26  2  0
 24 27  1  0
 13  4  1  0
 26 15  1  0
 12  7  1  0
 25 18  1  0
  1 28  1  0
  8 29  1  0
  9 30  1  0
 10 31  1  0
 11 32  1  0
 14 33  1  0
 14 34  1  0
 17 35  1  0
 19 36  1  0
 19 37  1  0
 22 38  1  0
 22 39  1  0
 26 40  1  0
M  END
$$$$
confid_2
     RDKit          3D

 40 43  0  0  0  0  0  0  0  0999 V2000
   25.3300   26.2600   34.7600 N   0  0  0  0  0  0  0  0  0  0  0  0
   26.1200   25.9200   33.6900 C   0  0  0  0  0  0  0  0  0  0  0  0
   25.6300   25.1100   32.9400 O   0  0  0  0  0  0  0  0  0  0  0  0
   27.5200   26.3800   33.4600 C   0  0  0  0  0  0  0  0  0  0  0  0
   28.1600   26.6300   34.6100 N   0  0  0  0  0  0  0  0  0  0  0  0
   29.4800   26.8500   34.5700 N   0  0  0  0  0  0  0  0  0  0  0  0
   30.1900   26.7800   33.4400 C   0  0  0  0  0  0  0  0  0  0  0  0
   31.5600   27.0500   33.5000 C   0  0  0  0  0  0  0  0  0  0  0  0
   32.2700   27.2400   32.3100 C   0  0  0  0  0  0  0  0  0  0  0  0
   31.6100   27.2500   31.0800 C   0  0  0  0  0  0  0  0  0  0  0  0
   30.2700   26.8700   31.0600 C   0  0  0  0  0  0  0  0  0  0  0  0
   29.5100   26.6900   32.2300 C   0  0  0  0  0  0  0  0  0  0  0  0
   28.1400   26.4100   32.2000 C   0  0  0  0  0  0  0  0  0  0  0  0
   27.4300   26.1300   31.0500 N   0  0  0  0  0  0  0  0  0  0  0  0
   24.1475   25.5621   35.2044 C   0  0  0  0  0  0  0  0  0  0  0  0
   23.8287   24.3349   34.7076 N   0  0  0  0  0  0  0  0  0  0  0  0
   22.7299   23.6499   35.1173 C   0  0  0  0  0  0  0  0  0  0  0  0
   21.8790   24.1922   36.0915 C   0  0  0  0  0  0  0  0  0  0  0  0
   20.6124   23.4674   36.4797 C   0  0  0  0  0  0  0  0  0  0  0  0
   20.6284   23.0686   37.9306 C   0  0  0  0  0  0  0  0  0  0  0  0
   20.1878   21.9759   38.2538 O   0  0  0  0  0  0  0  0  0  0  0  0
   21.1829   23.9802   38.9944 C   0  0  0  0  0  0  0  0  0  0  0  0
   20.8961   25.3875   38.7111 N   0  0  0  0  0  0  0  0  0  0  0  0
   21.3624   26.0651   37.7016 C   0  0  0  0  0  0  0  0  0  0  0  0
   22.2029   25.4469   36.6510 C   0  0  0  0  0  0  0  0  0  0  0  0
   23.3317   26.1356   36.1883 C   0  0  0  0  0  0  0  0  0  0  0  0
   21.0933   27.3920   37.6283 F   0  0  0  0  0  0  0  0  0  0  0  0
   25.6227   27.1011   35.3075 H   0  0  0  0  0  0  0  0  0  0  0  0
   32.0668   27.1429   34.4530 H   0  0  0  0  0  0  0  0  0  0  0  0
   33.3284   27.4627   32.3495 H   0  0  0  0  0  0  0  0  0  0  0  0
   32.1496   27.4414   30.1613 H   0  0  0  0  0  0  0  0  0  0  0  0
   29.7983   26.8254   30.0886 H   0  0  0  0  0  0  0  0  0  0  0  0
   26.4124   26.3493   30.9737 H   0  0  0  0  0  0  0  0  0  0  0  0
   27.8914   25.7239   30.2072 H   0  0  0  0  0  0  0  0  0  0  0  0
   22.5156   22.6866   34.6728 H   0  0  0  0  0  0  0  0  0  0  0  0
   20.4678   22.5632   35.8479 H   0  0  0  0  0  0  0  0  0  0  0  0
   19.7403   24.1312   36.2982 H   0  0  0  0  0  0  0  0  0  0  0  0
   22.2806   23.8279   39.0778 H   0  0  0  0  0  0  0  0  0  0  0  0
   20.7293   23.7224   39.9751 H   0  0  0  0  0  0  0  0  0  0  0  0
   23.5848   27.1047   36.6019 H   0  0  0  0  0  0  0  0  0  0  0  0
  1  2  1  0
  2  3  2  0
  2  4  1  0
  4  5  2  0
  5  6  1  0
  6  7  2  0
  7  8  1  0
  8  9  2  0
  9 10  1  0
 10 11  2  0
 11 12  1  0
 12 13  2  0
 13 14  1  0
  1 15  1  0
 15 16  2  0
 16 17  1  0
 17 18  2  0
 18 19  1  0
 19 20  1  0
 20 21  2  0
 20 22  1  0
 22 23  1  0
 23 24  2  0
 24 25  1  0
 25 26  2  0
 24 27  1  0
 13  4  1  0
 26 15  1  0
 12  7  1  0
 25 18  1  0
  1 28  1  0
  8 29  1  0
  9 30  1  0
 10 31  1  0
 11 32  1  0
 14 33  1  0
 14 34  1  0
 17 35  1  0
 19 36  1  0
 19 37  1  0
 22 38  1  0
 22 39  1  0
 26 40  1  0
M  END
$$$$
confid_3
     RDKit          3D

 40 43  0  0  0  0  0  0  0  0999 V2000
   25.3300   26.2600   34.7600 N   0  0  0  0  0  0  0  0  0  0  0  0
   26.1200   25.9200   33.6900 C   0  0  0  0  0  0  0  0  0  0  0  0
   25.6300   25.1100   32.9400 O   0  0  0  0  0  0  0  0  0  0  0  0
   27.5200   26.3800   33.4600 C   0  0  0  0  0  0  0  0  0  0  0  0
   28.1600   26.6300   34.6100 N   0  0  0  0  0  0  0  0  0  0  0  0
   29.4800   26.8500   34.5700 N   0  0  0  0  0  0  0  0  0  0  0  0
   30.1900   26.7800   33.4400 C   0  0  0  0  0  0  0  0  0  0  0  0
   31.5600   27.0500   33.5000 C   0  0  0  0  0  0  0  0  0  0  0  0
   32.2700   27.2400   32.3100 C   0  0  0  0  0  0  0  0  0  0  0  0
   31.6100   27.2500   31.0800 C   0  0  0  0  0  0  0  0  0  0  0  0
   30.2700   26.8700   31.0600 C   0  0  0  0  0  0  0  0  0  0  0  0
   29.5100   26.6900   32.2300 C   0  0  0  0  0  0  0  0  0  0  0  0
   28.1400   26.4100   32.2000 C   0  0  0  0  0  0  0  0  0  0  0  0
   27.4300   26.1300   31.0500 N   0  0  0  0  0  0  0  0  0  0  0  0
   23.9052   26.0523   34.8563 C   0  0  0  0  0  0  0  0  0  0  0  0
   23.1761   25.6787   33.7683 N   0  0  0  0  0  0  0  0  0  0  0  0
   21.8328   25.4859   33.8267 C   0  0  0  0  0  0  0  0  0  0  0  0
   21.1411   25.6793   35.0313 C   0  0  0  0  0  0  0  0  0  0  0  0
   19.6642   25.3749   35.1142 C   0  0  0  0  0  0  0  0  0  0  0  0
   18.8651   26.6077   35.4390 C   0  0  0  0  0  0  0  0  0  0  0  0
   17.7965   26.7918   34.8754 O   0  0  0  0  0  0  0  0  0  0  0  0
   19.3545   27.6260   36.4362 C   0  0  0  0  0  0  0  0  0  0  0  0
   20.0655   26.9994   37.5523 N   0  0  0  0  0  0  0  0  0  0  0  0
   21.1921   26.3522   37.4630 C   0  0  0  0  0  0  0  0  0  0  0  0
   21.8642   26.1034   36.1673 C   0  0  0  0  0  0  0  0  0  0  0  0
   23.2523   26.2705   36.0764 C   0  0  0  0  0  0  0  0  0  0  0  0
   21.7856   25.9176   38.6024 F   0  0  0  0  0  0  0  0  0  0  0  0
   25.7911   26.7519   35.5587 H   0  0  0  0  0  0  0  0  0  0  0  0
   32.0667   27.1429   34.4530 H   0  0  0  0  0  0  0  0  0  0  0  0
   33.3284   27.4627   32.3495 H   0  0  0  0  0  0  0  0  0  0  0  0
   32.1496   27.4414   30.1613 H   0  0  0  0  0  0  0  0  0  0  0  0
   29.7983   26.8254   30.0886 H   0  0  0  0  0  0  0  0  0  0  0  0
   27.8914   25.7241   30.2072 H   0  0  0  0  0  0  0  0  0  0  0  0
   26.4123   26.3491   30.9738 H   0  0  0  0  0  0  0  0  0  0  0  0
   21.3081   25.1691   32.9344 H   0  0  0  0  0  0  0  0  0  0  0  0
   19.4910   24.6144   35.9055 H   0  0  0  0  0  0  0  0  0  0  0  0
   19.2988   24.9368   34.1591 H   0  0  0  0  0  0  0  0  0  0  0  0
   20.0206   28.3548   35.9256 H   0  0  0  0  0  0  0  0  0  0  0  0
   18.4882   28.1877   36.8459 H   0  0  0  0  0  0  0  0  0  0  0  0
   23.8208   26.5829   36.9447 H   0  0  0  0  0  0  0  0  0  0  0  0
  1  2  1  0
  2  3  2  0
  2  4  1  0
  4  5  2  0
  5  6  1  0
  6  7  2  0
  7  8  1  0
  8  9  2  0
  9 10  1  0
 10 11  2  0
 11 12  1  0
 12 13  2  0
 13 14  1  0
  1 15  1  0
 15 16  2  0
 16 17  1  0
 17 18  2  0
 18 19  1  0
 19 20  1  0
 20 21  2  0
 20 22  1  0
 22 23  1  0
 23 24  2  0
 24 25  1  0
 25 26  2  0
 24 27  1  0
 13  4  1  0
 26 15  1  0
 12  7  1  0
 25 18  1  0
  1 28  1  0
  8 29  1  0
  9 30  1  0
 10 31  1  0
 11 32  1  0
 14 33  1  0
 14 34  1  0
 17 35  1  0
 19 36  1  0
 19 37  1  0
 22 38  1  0
 22 39  1  0
 26 40  1  0
M  END
$$$$
confid_4
     RDKit          3D

 40 43  0  0  0  0  0  0  0  0999 V2000
   25.3300   26.2600   34.7600 N   0  0  0  0  0  0  0  0  0  0  0  0
   26.1200   25.9200   33.6900 C   0  0  0  0  0  0  0  0  0  0  0  0
   25.6300   25.1100   32.9400 O   0  0  0  0  0  0  0  0  0  0  0  0
   27.5200   26.3800   33.4600 C   0  0  0  0  0  0  0  0  0  0  0  0
   28.1600   26.6300   34.6100 N   0  0  0  0  0  0  0  0  0  0  0  0
   29.4800   26.8500   34.5700 N   0  0  0  0  0  0  0  0  0  0  0  0
   30.1900   26.7800   33.4400 C   0  0  0  0  0  0  0  0  0  0  0  0
   31.5600   27.0500   33.5000 C   0  0  0  0  0  0  0  0  0  0  0  0
   32.2700   27.2400   32.3100 C   0  0  0  0  0  0  0  0  0  0  0  0
   31.6100   27.2500   31.0800 C   0  0  0  0  0  0  0  0  0  0  0  0
   30.2700   26.8700   31.0600 C   0  0  0  0  0  0  0  0  0  0  0  0
   29.5100   26.6900   32.2300 C   0  0  0  0  0  0  0  0  0  0  0  0
   28.1400   26.4100   32.2000 C   0  0  0  0  0  0  0  0  0  0  0  0
   27.4300   26.1300   31.0500 N   0  0  0  0  0  0  0  0  0  0  0  0
   23.9190   25.9874   34.8980 C   0  0  0  0  0  0  0  0  0  0  0  0
   23.1928   25.4977   33.8551 N   0  0  0  0  0  0  0  0  0  0  0  0
   21.8601   25.2521   33.9497 C   0  0  0  0  0  0  0  0  0  0  0  0
   21.1779   25.5014   35.1494 C   0  0  0  0  0  0  0  0  0  0  0  0
   19.6824   25.3083   35.2254 C   0  0  0  0  0  0  0  0  0  0  0  0
   19.3200   24.2400   36.2214 C   0  0  0  0  0  0  0  0  0  0  0  0
   18.4474   23.4319   35.9393 O   0  0  0  0  0  0  0  0  0  0  0  0
   20.0170   24.1319   37.5537 C   0  0  0  0  0  0  0  0  0  0  0  0
   20.3901   25.4435   38.0881 N   0  0  0  0  0  0  0  0  0  0  0  0
   21.2501   26.2632   37.5537 C   0  0  0  0  0  0  0  0  0  0  0  0
   21.9073   25.9898   36.2552 C   0  0  0  0  0  0  0  0  0  0  0  0
   23.2758   26.2538   36.1137 C   0  0  0  0  0  0  0  0  0  0  0  0
   21.5712   27.3974   38.2229 F   0  0  0  0  0  0  0  0  0  0  0  0
   25.7819   26.8013   35.5315 H   0  0  0  0  0  0  0  0  0  0  0  0
   32.0667   27.1430   34.4530 H   0  0  0  0  0  0  0  0  0  0  0  0
   33.3284   27.4626   32.3495 H   0  0  0  0  0  0  0  0  0  0  0  0
   32.1496   27.4413   30.1614 H   0  0  0  0  0  0  0  0  0  0  0  0
   29.7982   26.8252   30.0886 H   0  0  0  0  0  0  0  0  0  0  0  0
   26.4125   26.3499   30.9735 H   0  0  0  0  0  0  0  0  0  0  0  0
   27.8912   25.7221   30.2079 H   0  0  0  0  0  0  0  0  0  0  0  0
   21.3311   24.8767   33.0816 H   0  0  0  0  0  0  0  0  0  0  0  0
   19.2681   25.0431   34.2269 H   0  0  0  0  0  0  0  0  0  0  0  0
   19.2042   26.2638   35.5295 H   0  0  0  0  0  0  0  0  0  0  0  0
   20.9228   23.4970   37.4474 H   0  0  0  0  0  0  0  0  0  0  0  0
   19.3403   23.6379   38.2838 H   0  0  0  0  0  0  0  0  0  0  0  0
   23.8431   26.6449   36.9504 H   0  0  0  0  0  0  0  0  0  0  0  0
  1  2  1  0
  2  3  2  0
  2  4  1  0
  4  5  2  0
  5  6  1  0
  6  7  2  0
  7  8  1  0
  8  9  2  0
  9 10  1  0
 10 11  2  0
 11 12  1  0
 12 13  2  0
 13 14  1  0
  1 15  1  0
 15 16  2  0
 16 17  1  0
 17 18  2  0
 18 19  1  0
 19 20  1  0
 20 21  2  0
 20 22  1  0
 22 23  1  0
 23 24  2  0
 24 25  1  0
 25 26  2  0
 24 27  1  0
 13  4  1  0
 26 15  1  0
 12  7  1  0
 25 18  1  0
  1 28  1  0
  8 29  1  0
  9 30  1  0
 10 31  1  0
 11 32  1  0
 14 33  1  0
 14 34  1  0
 17 35  1  0
 19 36  1  0
 19 37  1  0
 22 38  1  0
 22 39  1  0
 26 40  1  0
M  END
$$$$
confid_5
     RDKit          3D

 40 43  0  0  0  0  0  0  0  0999 V2000
   25.3300   26.2600   34.7600 N   0  0  0  0  0  0  0  0  0  0  0  0
   26.1200   25.9200   33.6900 C   0  0  0  0  0  0  0  0  0  0  0  0
   25.6300   25.1100   32.9400 O   0  0  0  0  0  0  0  0  0  0  0  0
   27.5200   26.3800   33.4600 C   0  0  0  0  0  0  0  0  0  0  0  0
   28.1600   26.6300   34.6100 N   0  0  0  0  0  0  0  0  0  0  0  0
   29.4800   26.8500   34.5700 N   0  0  0  0  0  0  0  0  0  0  0  0
   30.1900   26.7800   33.4400 C   0  0  0  0  0  0  0  0  0  0  0  0
   31.5600   27.0500   33.5000 C   0  0  0  0  0  0  0  0  0  0  0  0
   32.2700   27.2400   32.3100 C   0  0  0  0  0  0  0  0  0  0  0  0
   31.6100   27.2500   31.0800 C   0  0  0  0  0  0  0  0  0  0  0  0
   30.2700   26.8700   31.0600 C   0  0  0  0  0  0  0  0  0  0  0  0
   29.5100   26.6900   32.2300 C   0  0  0  0  0  0  0  0  0  0  0  0
   28.1400   26.4100   32.2000 C   0  0  0  0  0  0  0  0  0  0  0  0
   27.4300   26.1300   31.0500 N   0  0  0  0  0  0  0  0  0  0  0  0
   24.1481   25.5615   35.2049 C   0  0  0  0  0  0  0  0  0  0  0  0
   23.8292   24.3345   34.7080 N   0  0  0  0  0  0  0  0  0  0  0  0
   22.7371   23.6440   35.1263 C   0  0  0  0  0  0  0  0  0  0  0  0
   21.8886   24.1842   36.1037 C   0  0  0  0  0  0  0  0  0  0  0  0
   20.7262   23.3756   36.6287 C   0  0  0  0  0  0  0  0  0  0  0  0
   19.4114   24.0465   36.3359 C   0  0  0  0  0  0  0  0  0  0  0  0
   18.4590   23.3655   35.9868 O   0  0  0  0  0  0  0  0  0  0  0  0
   19.2424   25.5390   36.4537 C   0  0  0  0  0  0  0  0  0  0  0  0
   20.0202   26.0905   37.5645 N   0  0  0  0  0  0  0  0  0  0  0  0
   21.3198   26.0988   37.6458 C   0  0  0  0  0  0  0  0  0  0  0  0
   22.1830   25.4626   36.6247 C   0  0  0  0  0  0  0  0  0  0  0  0
   23.3306   26.1362   36.1868 C   0  0  0  0  0  0  0  0  0  0  0  0
   21.9028   26.7407   38.6881 F   0  0  0  0  0  0  0  0  0  0  0  0
   25.6225   27.1012   35.3074 H   0  0  0  0  0  0  0  0  0  0  0  0
   32.0668   27.1425   34.4530 H   0  0  0  0  0  0  0  0  0  0  0  0
   33.3288   27.4608   32.3494 H   0  0  0  0  0  0  0  0  0  0  0  0
   32.1515   27.4335   30.1608 H   0  0  0  0  0  0  0  0  0  0  0  0
   29.8039   26.7906   30.0880 H   0  0  0  0  0  0  0  0  0  0  0  0
   27.5767   26.6942   30.1848 H   0  0  0  0  0  0  0  0  0  0  0  0
   26.8612   25.2624   30.9527 H   0  0  0  0  0  0  0  0  0  0  0  0
   22.5410   22.6664   34.7054 H   0  0  0  0  0  0  0  0  0  0  0  0
   20.8317   23.2537   37.7279 H   0  0  0  0  0  0  0  0  0  0  0  0
   20.7275   22.3540   36.1882 H   0  0  0  0  0  0  0  0  0  0  0  0
   19.5485   26.0231   35.5014 H   0  0  0  0  0  0  0  0  0  0  0  0
   18.1712   25.7770   36.6262 H   0  0  0  0  0  0  0  0  0  0  0  0
   23.5760   27.1115   36.5903 H   0  0  0  0  0  0  0  0  0  0  0  0
  1  2  1  0
  2  3  2  0
  2  4  1  0
  4  5  2  0
  5  6  1  0
  6  7  2  0
  7  8  1  0
  8  9  2  0
  9 10  1  0
 10 11  2  0
 11 12  1  0
 12 13  2  0
 13 14  1  0
  1 15  1  0
 15 16  2  0
 16 17  1  0
 17 18  2  0
 18 19  1  0
 19 20  1  0
 20 21  2  0
 20 22  1  0
 22 23  1  0
 23 24  2  0
 24 25  1  0
 25 26  2  0
 24 27  1  0
 13  4  1  0
 26 15  1  0
 12  7  1  0
 25 18  1  0
  1 28  1  0
  8 29  1  0
  9 30  1  0
 10 31  1  0
 11 32  1  0
 14 33  1  0
 14 34  1  0
 17 35  1  0
 19 36  1  0
 19 37  1  0
 22 38  1  0
 22 39  1  0
 26 40  1  0
M  END
$$$$
