confid_0
     RDKit          3D

 45 49  0  0  0  0  0  0  0  0999 V2000
   24.6900   26.1200   35.5300 N   0  0  0  0  0  0  0  0  0  0  0  0
   25.6600   25.6700   34.6600 C   0  0  0  0  0  0  0  0  0  0  0  0
   25.2400   25.0100   33.7200 O   0  0  0  0  0  0  0  0  0  0  0  0
   27.0300   26.2200   34.8800 C   0  0  0  0  0  0  0  0  0  0  0  0
   27.3500   26.7300   36.0700 N   0  0  0  0  0  0  0  0  0  0  0  0
   28.5700   27.1800   36.3300 N   0  0  0  0  0  0  0  0  0  0  0  0
   29.5300   27.1100   35.3900 C   0  0  0  0  0  0  0  0  0  0  0  0
   30.8300   27.5700   35.6500 C   0  0  0  0  0  0  0  0  0  0  0  0
   31.8500   27.5400   34.6900 C   0  0  0  0  0  0  0  0  0  0  0  0
   31.5100   27.1200   33.4000 C   0  0  0  0  0  0  0  0  0  0  0  0
   30.2200   26.6300   33.1100 C   0  0  0  0  0  0  0  0  0  0  0  0
   29.2400   26.6600   34.1000 C   0  0  0  0  0  0  0  0  0  0  0  0
   27.9300   26.2600   33.8100 C   0  0  0  0  0  0  0  0  0  0  0  0
   27.5200   25.7100   32.6100 N   0  0  0  0  0  0  0  0  0  0  0  0
   23.3269   26.4114   35.1571 C   0  0  0  0  0  0  0  0  0  0  0  0
   23.0564   26.5996   33.8911 N   0  0  0  0  0  0  0  0  0  0  0  0
   21.8670   26.8655   33.1284 C   0  0  0  0  0  0  0  0  0  0  0  0
   20.6623   26.4227   33.4664 C   0  0  0  0  0  0  0  0  0  0  0  0
   19.4930   25.8294   32.7323 C   0  0  0  0  0  0  0  0  0  0  0  0
   18.8927   25.2946   33.8685 O   0  0  0  0  0  0  0  0  0  0  0  0
   19.8637   25.9341   34.6300 C   0  0  0  0  0  0  0  0  0  0  0  0
   20.6768   25.0124   35.5339 C   0  0  0  0  0  0  0  0  0  0  0  0
   21.3193   25.9039   36.5596 C   0  0  0  0  0  0  0  0  0  0  0  0
   22.3856   26.6806   36.2714 C   0  0  0  0  0  0  0  0  0  0  0  0
   22.7941   27.6851   37.2133 N   0  0  0  0  0  0  0  0  0  0  0  0
   22.2275   27.8753   38.3654 C   0  0  0  0  0  0  0  0  0  0  0  0
   21.1272   26.9830   38.8543 C   0  0  0  0  0  0  0  0  0  0  0  0
   20.5973   26.1482   37.7788 N   0  0  0  0  0  0  0  0  0  0  0  0
   24.9449   26.2247   36.5386 H   0  0  0  0  0  0  0  0  0  0  0  0
   31.0672   27.9417   36.6393 H   0  0  0  0  0  0  0  0  0  0  0  0
   32.8482   27.8886   34.9211 H   0  0  0  0  0  0  0  0  0  0  0  0
   32.2640   27.1263   32.6235 H   0  0  0  0  0  0  0  0  0  0  0  0
   30.0101   26.3034   32.1004 H   0  0  0  0  0  0  0  0  0  0  0  0
   26.6932   26.1019   32.1061 H   0  0  0  0  0  0  0  0  0  0  0  0
   28.1317   25.0439   32.0889 H   0  0  0  0  0  0  0  0  0  0  0  0
   22.0166   27.0743   32.0777 H   0  0  0  0  0  0  0  0  0  0  0  0
   19.8070   25.0249   32.0315 H   0  0  0  0  0  0  0  0  0  0  0  0
   18.8551   26.6055   32.2528 H   0  0  0  0  0  0  0  0  0  0  0  0
   19.3984   26.7836   35.1872 H   0  0  0  0  0  0  0  0  0  0  0  0
   19.9970   24.2903   36.0345 H   0  0  0  0  0  0  0  0  0  0  0  0
   21.4321   24.4235   34.9678 H   0  0  0  0  0  0  0  0  0  0  0  0
   22.6088   28.6471   39.0204 H   0  0  0  0  0  0  0  0  0  0  0  0
   20.3096   27.6113   39.2662 H   0  0  0  0  0  0  0  0  0  0  0  0
   21.5198   26.3322   39.6633 H   0  0  0  0  0  0  0  0  0  0  0  0
   19.7138   25.6225   37.9654 H   0  0  0  0  0  0  0  0  0  0  0  0
  1  2  1  0
  2  3  2  0
  2  4  1  0
  4  5  2  0
  5  6  1  0
  6  7  2  0
  7  8  1  0
  8  9  2  0
  9 10  1  0
 10 11  2  0
 11 12  1  0
 12 13  2  0
 13 14  1  0
  1 15  1  0
 15 16  2  0
 16 17  1  0
 17 18  2  0
 18 19  1  0
 19 20  1  0
 20 21  1  0
 21 22  1  0
 22 23  1  0
 23 24  2  0
 24 25  1  0
 25 26  2  0
 26 27  1  0
 27 28  1  0
 13  4  1  0
 24 15  1  0
 12  7  1  0
 21 18  1  0
 28 23  1  0
  1 29  1  0
  8 30  1  0
  9 31  1  0
 10 32  1  0
 11 33  1  0
 14 34  1  0
 14 35  1  0
 17 36  1  0
 19 37  1  0
 19 38  1  0
 21 39  1  0
 22 40  1  0
 22 41  1  0
 26 42  1  0
 27 43  1  0
 27 44  1  0
 28 45  1  0
M  END
$$$$
