confid_0
     RDKit          3D

 47 50  0  0  0  0  0  0  0  0999 V2000
   24.6900   26.1200   35.5300 N   0  0  0  0  0  0  0  0  0  0  0  0
   25.6600   25.6700   34.6600 C   0  0  0  0  0  0  0  0  0  0  0  0
   25.2400   25.0100   33.7200 O   0  0  0  0  0  0  0  0  0  0  0  0
   27.0300   26.2200   34.8800 C   0  0  0  0  0  0  0  0  0  0  0  0
   27.3500   26.7300   36.0700 N   0  0  0  0  0  0  0  0  0  0  0  0
   28.5700   27.1800   36.3300 N   0  0  0  0  0  0  0  0  0  0  0  0
   29.5300   27.1100   35.3900 C   0  0  0  0  0  0  0  0  0  0  0  0
   30.8300   27.5700   35.6500 C   0  0  0  0  0  0  0  0  0  0  0  0
   31.8500   27.5400   34.6900 C   0  0  0  0  0  0  0  0  0  0  0  0
   31.5100   27.1200   33.4000 C   0  0  0  0  0  0  0  0  0  0  0  0
   30.2200   26.6300   33.1100 C   0  0  0  0  0  0  0  0  0  0  0  0
   29.2400   26.6600   34.1000 C   0  0  0  0  0  0  0  0  0  0  0  0
   27.9300   26.2600   33.8100 C   0  0  0  0  0  0  0  0  0  0  0  0
   27.5200   25.7100   32.6100 N   0  0  0  0  0  0  0  0  0  0  0  0
   23.3314   26.4233   35.1555 C   0  0  0  0  0  0  0  0  0  0  0  0
   23.0155   26.5207   33.8932 N   0  0  0  0  0  0  0  0  0  0  0  0
   21.7482   26.9505   33.3965 C   0  0  0  0  0  0  0  0  0  0  0  0
   21.1269   26.2535   32.4566 C   0  0  0  0  0  0  0  0  0  0  0  0
   19.8169   26.2815   31.7272 C   0  0  0  0  0  0  0  0  0  0  0  0
   20.0433   25.1105   31.0104 O   0  0  0  0  0  0  0  0  0  0  0  0
   21.2925   25.0120   31.6182 C   0  0  0  0  0  0  0  0  0  0  0  0
   21.4447   23.6751   32.3858 C   0  0  0  0  0  0  0  0  0  0  0  0
   20.8031   23.6279   33.7846 C   0  0  0  0  0  0  0  0  0  0  0  0
   21.7499   24.0635   34.7387 O   0  0  0  0  0  0  0  0  0  0  0  0
   21.1465   24.3260   35.9918 C   0  0  0  0  0  0  0  0  0  0  0  0
   20.9913   25.8371   36.2134 C   0  0  0  0  0  0  0  0  0  0  0  0
   22.3205   26.5637   36.2377 C   0  0  0  0  0  0  0  0  0  0  0  0
   22.6101   27.2610   37.2466 O   0  0  0  0  0  0  0  0  0  0  0  0
   24.9416   26.2317   36.5384 H   0  0  0  0  0  0  0  0  0  0  0  0
   31.0673   27.9414   36.6394 H   0  0  0  0  0  0  0  0  0  0  0  0
   32.8486   27.8873   34.9214 H   0  0  0  0  0  0  0  0  0  0  0  0
   32.2655   27.1208   32.6249 H   0  0  0  0  0  0  0  0  0  0  0  0
   30.0114   26.2785   32.1078 H   0  0  0  0  0  0  0  0  0  0  0  0
   27.3401   24.6834   32.5417 H   0  0  0  0  0  0  0  0  0  0  0  0
   27.6973   26.2230   31.7183 H   0  0  0  0  0  0  0  0  0  0  0  0
   21.2468   27.7983   33.8461 H   0  0  0  0  0  0  0  0  0  0  0  0
   19.7326   27.1620   31.0527 H   0  0  0  0  0  0  0  0  0  0  0  0
   18.9510   26.1743   32.4168 H   0  0  0  0  0  0  0  0  0  0  0  0
   22.1022   25.1366   30.8639 H   0  0  0  0  0  0  0  0  0  0  0  0
   21.0025   22.8681   31.7616 H   0  0  0  0  0  0  0  0  0  0  0  0
   22.5278   23.4397   32.4777 H   0  0  0  0  0  0  0  0  0  0  0  0
   19.8716   24.2384   33.8011 H   0  0  0  0  0  0  0  0  0  0  0  0
   20.5289   22.5733   34.0097 H   0  0  0  0  0  0  0  0  0  0  0  0
   20.1583   23.8244   36.1260 H   0  0  0  0  0  0  0  0  0  0  0  0
   21.8086   23.9185   36.7854 H   0  0  0  0  0  0  0  0  0  0  0  0
   20.3156   26.2641   35.4470 H   0  0  0  0  0  0  0  0  0  0  0  0
   20.4820   25.9873   37.1904 H   0  0  0  0  0  0  0  0  0  0  0  0
  1  2  1  0
  2  3  2  0
  2  4  1  0
  4  5  2  0
  5  6  1  0
  6  7  2  0
  7  8  1  0
  8  9  2  0
  9 10  1  0
 10 11  2  0
 11 12  1  0
 12 13  2  0
 13 14  1  0
  1 15  1  0
 15 16  2  0
 16 17  1  0
 17 18  2  0
 18 19  1  0
 19 20  1  0
 20 21  1  0
 21 22  1  0
 22 23  1  0
 23 24  1  0
 24 25  1  0
 25 26  1  0
 26 27  1  0
 27 28  2  0
 13  4  1  0
 27 15  1  0
 12  7  1  0
 21 18  1  0
  1 29  1  0
  8 30  1  0
  9 31  1  0
 10 32  1  0
 11 33  1  0
 14 34  1  0
 14 35  1  0
 17 36  1  0
 19 37  1  0
 19 38  1  0
 21 39  1  0
 22 40  1  0
 22 41  1  0
 23 42  1  0
 23 43  1  0
 25 44  1  0
 25 45  1  0
 26 46  1  0
 26 47  1  0
M  END
$$$$
confid_1
     RDKit          3D

 47 50  0  0  0  0  0  0  0  0999 V2000
   24.6900   26.1200   35.5300 N   0  0  0  0  0  0  0  0  0  0  0  0
   25.6600   25.6700   34.6600 C   0  0  0  0  0  0  0  0  0  0  0  0
   25.2400   25.0100   33.7200 O   0  0  0  0  0  0  0  0  0  0  0  0
   27.0300   26.2200   34.8800 C   0  0  0  0  0  0  0  0  0  0  0  0
   27.3500   26.7300   36.0700 N   0  0  0  0  0  0  0  0  0  0  0  0
   28.5700   27.1800   36.3300 N   0  0  0  0  0  0  0  0  0  0  0  0
   29.5300   27.1100   35.3900 C   0  0  0  0  0  0  0  0  0  0  0  0
   30.8300   27.5700   35.6500 C   0  0  0  0  0  0  0  0  0  0  0  0
   31.8500   27.5400   34.6900 C   0  0  0  0  0  0  0  0  0  0  0  0
   31.5100   27.1200   33.4000 C   0  0  0  0  0  0  0  0  0  0  0  0
   30.2200   26.6300   33.1100 C   0  0  0  0  0  0  0  0  0  0  0  0
   29.2400   26.6600   34.1000 C   0  0  0  0  0  0  0  0  0  0  0  0
   27.9300   26.2600   33.8100 C   0  0  0  0  0  0  0  0  0  0  0  0
   27.5200   25.7100   32.6100 N   0  0  0  0  0  0  0  0  0  0  0  0
   23.3226   26.3895   35.1649 C   0  0  0  0  0  0  0  0  0  0  0  0
   22.9976   26.5075   33.9055 N   0  0  0  0  0  0  0  0  0  0  0  0
   21.6755   26.6760   33.3819 C   0  0  0  0  0  0  0  0  0  0  0  0
   20.7376   25.7479   33.5619 C   0  0  0  0  0  0  0  0  0  0  0  0
   20.5564   24.4066   34.2146 C   0  0  0  0  0  0  0  0  0  0  0  0
   19.2191   24.2669   33.8531 O   0  0  0  0  0  0  0  0  0  0  0  0
   19.2959   25.4964   33.2043 C   0  0  0  0  0  0  0  0  0  0  0  0
   18.2864   26.5169   33.7806 C   0  0  0  0  0  0  0  0  0  0  0  0
   18.5617   26.9287   35.2335 C   0  0  0  0  0  0  0  0  0  0  0  0
   19.6976   27.7660   35.2560 O   0  0  0  0  0  0  0  0  0  0  0  0
   20.2101   27.9212   36.5620 C   0  0  0  0  0  0  0  0  0  0  0  0
   21.7385   27.9765   36.4871 C   0  0  0  0  0  0  0  0  0  0  0  0
   22.3482   26.6185   36.2551 C   0  0  0  0  0  0  0  0  0  0  0  0
   22.1527   25.7026   37.0980 O   0  0  0  0  0  0  0  0  0  0  0  0
   24.9465   26.2693   36.5325 H   0  0  0  0  0  0  0  0  0  0  0  0
   31.0672   27.9417   36.6393 H   0  0  0  0  0  0  0  0  0  0  0  0
   32.8482   27.8886   34.9211 H   0  0  0  0  0  0  0  0  0  0  0  0
   32.2640   27.1263   32.6235 H   0  0  0  0  0  0  0  0  0  0  0  0
   30.0101   26.3034   32.1004 H   0  0  0  0  0  0  0  0  0  0  0  0
   28.1317   25.0439   32.0889 H   0  0  0  0  0  0  0  0  0  0  0  0
   26.6932   26.1019   32.1061 H   0  0  0  0  0  0  0  0  0  0  0  0
   21.4620   27.5230   32.7445 H   0  0  0  0  0  0  0  0  0  0  0  0
   20.6693   24.4484   35.3181 H   0  0  0  0  0  0  0  0  0  0  0  0
   21.1893   23.6238   33.7416 H   0  0  0  0  0  0  0  0  0  0  0  0
   19.1632   25.3712   32.1060 H   0  0  0  0  0  0  0  0  0  0  0  0
   18.2891   27.4259   33.1406 H   0  0  0  0  0  0  0  0  0  0  0  0
   17.2688   26.0743   33.7197 H   0  0  0  0  0  0  0  0  0  0  0  0
   18.6941   26.0049   35.8416 H   0  0  0  0  0  0  0  0  0  0  0  0
   17.6844   27.4910   35.6221 H   0  0  0  0  0  0  0  0  0  0  0  0
   19.9068   27.1243   37.2813 H   0  0  0  0  0  0  0  0  0  0  0  0
   19.8414   28.8882   36.9667 H   0  0  0  0  0  0  0  0  0  0  0  0
   22.1323   28.3735   37.4473 H   0  0  0  0  0  0  0  0  0  0  0  0
   22.0463   28.6829   35.6851 H   0  0  0  0  0  0  0  0  0  0  0  0
  1  2  1  0
  2  3  2  0
  2  4  1  0
  4  5  2  0
  5  6  1  0
  6  7  2  0
  7  8  1  0
  8  9  2  0
  9 10  1  0
 10 11  2  0
 11 12  1  0
 12 13  2  0
 13 14  1  0
  1 15  1  0
 15 16  2  0
 16 17  1  0
 17 18  2  0
 18 19  1  0
 19 20  1  0
 20 21  1  0
 21 22  1  0
 22 23  1  0
 23 24  1  0
 24 25  1  0
 25 26  1  0
 26 27  1  0
 27 28  2  0
 13  4  1  0
 27 15  1  0
 12  7  1  0
 21 18  1  0
  1 29  1  0
  8 30  1  0
  9 31  1  0
 10 32  1  0
 11 33  1  0
 14 34  1  0
 14 35  1  0
 17 36  1  0
 19 37  1  0
 19 38  1  0
 21 39  1  0
 22 40  1  0
 22 41  1  0
 23 42  1  0
 23 43  1  0
 25 44  1  0
 25 45  1  0
 26 46  1  0
 26 47  1  0
M  END
$$$$
confid_2
     RDKit          3D

 47 50  0  0  0  0  0  0  0  0999 V2000
   24.6900   26.1200   35.5300 N   0  0  0  0  0  0  0  0  0  0  0  0
   25.6600   25.6700   34.6600 C   0  0  0  0  0  0  0  0  0  0  0  0
   25.2400   25.0100   33.7200 O   0  0  0  0  0  0  0  0  0  0  0  0
   27.0300   26.2200   34.8800 C   0  0  0  0  0  0  0  0  0  0  0  0
   27.3500   26.7300   36.0700 N   0  0  0  0  0  0  0  0  0  0  0  0
   28.5700   27.1800   36.3300 N   0  0  0  0  0  0  0  0  0  0  0  0
   29.5300   27.1100   35.3900 C   0  0  0  0  0  0  0  0  0  0  0  0
   30.8300   27.5700   35.6500 C   0  0  0  0  0  0  0  0  0  0  0  0
   31.8500   27.5400   34.6900 C   0  0  0  0  0  0  0  0  0  0  0  0
   31.5100   27.1200   33.4000 C   0  0  0  0  0  0  0  0  0  0  0  0
   30.2200   26.6300   33.1100 C   0  0  0  0  0  0  0  0  0  0  0  0
   29.2400   26.6600   34.1000 C   0  0  0  0  0  0  0  0  0  0  0  0
   27.9300   26.2600   33.8100 C   0  0  0  0  0  0  0  0  0  0  0  0
   27.5200   25.7100   32.6100 N   0  0  0  0  0  0  0  0  0  0  0  0
   23.2971   26.3358   35.1989 C   0  0  0  0  0  0  0  0  0  0  0  0
   22.7696   25.6670   34.2070 N   0  0  0  0  0  0  0  0  0  0  0  0
   21.4507   25.5543   33.6376 C   0  0  0  0  0  0  0  0  0  0  0  0
   20.2882   25.7304   34.2712 C   0  0  0  0  0  0  0  0  0  0  0  0
   18.8532   25.4288   33.9356 C   0  0  0  0  0  0  0  0  0  0  0  0
   18.3320   25.8851   35.1398 O   0  0  0  0  0  0  0  0  0  0  0  0
   19.6214   26.2351   35.5253 C   0  0  0  0  0  0  0  0  0  0  0  0
   20.0608   25.4928   36.8072 C   0  0  0  0  0  0  0  0  0  0  0  0
   19.9448   26.3692   38.0695 C   0  0  0  0  0  0  0  0  0  0  0  0
   20.2727   27.7214   37.7892 O   0  0  0  0  0  0  0  0  0  0  0  0
   21.5617   28.0821   38.2412 C   0  0  0  0  0  0  0  0  0  0  0  0
   22.7053   27.3799   37.4869 C   0  0  0  0  0  0  0  0  0  0  0  0
   22.5567   27.3504   35.9806 C   0  0  0  0  0  0  0  0  0  0  0  0
   21.9536   28.2789   35.3785 O   0  0  0  0  0  0  0  0  0  0  0  0
   24.9909   26.4407   36.4758 H   0  0  0  0  0  0  0  0  0  0  0  0
   31.0672   27.9417   36.6396 H   0  0  0  0  0  0  0  0  0  0  0  0
   32.8489   27.8867   34.9217 H   0  0  0  0  0  0  0  0  0  0  0  0
   32.2654   27.1204   32.6250 H   0  0  0  0  0  0  0  0  0  0  0  0
   30.0114   26.2779   32.1079 H   0  0  0  0  0  0  0  0  0  0  0  0
   27.3410   24.6833   32.5416 H   0  0  0  0  0  0  0  0  0  0  0  0
   27.6976   26.2229   31.7183 H   0  0  0  0  0  0  0  0  0  0  0  0
   21.3905   25.0919   32.6610 H   0  0  0  0  0  0  0  0  0  0  0  0
   18.6753   24.3386   33.8080 H   0  0  0  0  0  0  0  0  0  0  0  0
   18.4857   26.0348   33.0774 H   0  0  0  0  0  0  0  0  0  0  0  0
   19.6987   27.3403   35.5683 H   0  0  0  0  0  0  0  0  0  0  0  0
   21.1103   25.1517   36.7017 H   0  0  0  0  0  0  0  0  0  0  0  0
   19.4529   24.5707   36.9443 H   0  0  0  0  0  0  0  0  0  0  0  0
   20.5523   25.9216   38.8900 H   0  0  0  0  0  0  0  0  0  0  0  0
   18.8893   26.3448   38.4134 H   0  0  0  0  0  0  0  0  0  0  0  0
   21.6577   27.9109   39.3369 H   0  0  0  0  0  0  0  0  0  0  0  0
   21.6705   29.1755   38.0818 H   0  0  0  0  0  0  0  0  0  0  0  0
   23.6528   27.9027   37.7432 H   0  0  0  0  0  0  0  0  0  0  0  0
   22.8027   26.3402   37.8683 H   0  0  0  0  0  0  0  0  0  0  0  0
  1  2  1  0
  2  3  2  0
  2  4  1  0
  4  5  2  0
  5  6  1  0
  6  7  2  0
  7  8  1  0
  8  9  2  0
  9 10  1  0
 10 11  2  0
 11 12  1  0
 12 13  2  0
 13 14  1  0
  1 15  1  0
 15 16  2  0
 16 17  1  0
 17 18  2  0
 18 19  1  0
 19 20  1  0
 20 21  1  0
 21 22  1  0
 22 23  1  0
 23 24  1  0
 24 25  1  0
 25 26  1  0
 26 27  1  0
 27 28  2  0
 13  4  1  0
 27 15  1  0
 12  7  1  0
 21 18  1  0
  1 29  1  0
  8 30  1  0
  9 31  1  0
 10 32  1  0
 11 33  1  0
 14 34  1  0
 14 35  1  0
 17 36  1  0
 19 37  1  0
 19 38  1  0
 21 39  1  0
 22 40  1  0
 22 41  1  0
 23 42  1  0
 23 43  1  0
 25 44  1  0
 25 45  1  0
 26 46  1  0
 26 47  1  0
M  END
$$$$
confid_3
     RDKit          3D

 47 50  0  0  0  0  0  0  0  0999 V2000
   24.6900   26.1200   35.5300 N   0  0  0  0  0  0  0  0  0  0  0  0
   25.6600   25.6700   34.6600 C   0  0  0  0  0  0  0  0  0  0  0  0
   25.2400   25.0100   33.7200 O   0  0  0  0  0  0  0  0  0  0  0  0
   27.0300   26.2200   34.8800 C   0  0  0  0  0  0  0  0  0  0  0  0
   27.3500   26.7300   36.0700 N   0  0  0  0  0  0  0  0  0  0  0  0
   28.5700   27.1800   36.3300 N   0  0  0  0  0  0  0  0  0  0  0  0
   29.5300   27.1100   35.3900 C   0  0  0  0  0  0  0  0  0  0  0  0
   30.8300   27.5700   35.6500 C   0  0  0  0  0  0  0  0  0  0  0  0
   31.8500   27.5400   34.6900 C   0  0  0  0  0  0  0  0  0  0  0  0
   31.5100   27.1200   33.4000 C   0  0  0  0  0  0  0  0  0  0  0  0
   30.2200   26.6300   33.1100 C   0  0  0  0  0  0  0  0  0  0  0  0
   29.2400   26.6600   34.1000 C   0  0  0  0  0  0  0  0  0  0  0  0
   27.9300   26.2600   33.8100 C   0  0  0  0  0  0  0  0  0  0  0  0
   27.5200   25.7100   32.6100 N   0  0  0  0  0  0  0  0  0  0  0  0
   23.4883   25.3904   35.8506 C   0  0  0  0  0  0  0  0  0  0  0  0
   23.4261   24.1193   35.5606 N   0  0  0  0  0  0  0  0  0  0  0  0
   22.3195   23.2293   35.7154 C   0  0  0  0  0  0  0  0  0  0  0  0
   21.3304   23.1966   34.8264 C   0  0  0  0  0  0  0  0  0  0  0  0
   20.1708   22.3015   34.4935 C   0  0  0  0  0  0  0  0  0  0  0  0
   19.7570   23.0324   33.3831 O   0  0  0  0  0  0  0  0  0  0  0  0
   20.8123   23.9122   33.6082 C   0  0  0  0  0  0  0  0  0  0  0  0
   20.3177   25.3574   33.8355 C   0  0  0  0  0  0  0  0  0  0  0  0
   19.2012   25.5324   34.8936 C   0  0  0  0  0  0  0  0  0  0  0  0
   19.6873   26.1818   36.0553 O   0  0  0  0  0  0  0  0  0  0  0  0
   20.0604   25.2639   37.0705 C   0  0  0  0  0  0  0  0  0  0  0  0
   21.4875   25.5448   37.5752 C   0  0  0  0  0  0  0  0  0  0  0  0
   22.3898   26.1356   36.5212 C   0  0  0  0  0  0  0  0  0  0  0  0
   22.2515   27.3589   36.2480 O   0  0  0  0  0  0  0  0  0  0  0  0
   24.8251   27.0479   35.9933 H   0  0  0  0  0  0  0  0  0  0  0  0
   31.0672   27.9417   36.6393 H   0  0  0  0  0  0  0  0  0  0  0  0
   32.8482   27.8886   34.9211 H   0  0  0  0  0  0  0  0  0  0  0  0
   32.2640   27.1263   32.6235 H   0  0  0  0  0  0  0  0  0  0  0  0
   30.0101   26.3033   32.1004 H   0  0  0  0  0  0  0  0  0  0  0  0
   28.1316   25.0435   32.0892 H   0  0  0  0  0  0  0  0  0  0  0  0
   26.6936   26.1022   32.1058 H   0  0  0  0  0  0  0  0  0  0  0  0
   22.3891   22.4303   36.4409 H   0  0  0  0  0  0  0  0  0  0  0  0
   19.3966   22.2916   35.2913 H   0  0  0  0  0  0  0  0  0  0  0  0
   20.5043   21.2808   34.2033 H   0  0  0  0  0  0  0  0  0  0  0  0
   21.5499   23.8668   32.7752 H   0  0  0  0  0  0  0  0  0  0  0  0
   19.9280   25.7186   32.8587 H   0  0  0  0  0  0  0  0  0  0  0  0
   21.1837   26.0082   34.0712 H   0  0  0  0  0  0  0  0  0  0  0  0
   18.6418   24.5946   35.1054 H   0  0  0  0  0  0  0  0  0  0  0  0
   18.4340   26.2063   34.4560 H   0  0  0  0  0  0  0  0  0  0  0  0
   19.3584   25.3905   37.9221 H   0  0  0  0  0  0  0  0  0  0  0  0
   19.9779   24.1948   36.7894 H   0  0  0  0  0  0  0  0  0  0  0  0
   21.9322   24.6208   38.0018 H   0  0  0  0  0  0  0  0  0  0  0  0
   21.4271   26.2729   38.4134 H   0  0  0  0  0  0  0  0  0  0  0  0
  1  2  1  0
  2  3  2  0
  2  4  1  0
  4  5  2  0
  5  6  1  0
  6  7  2  0
  7  8  1  0
  8  9  2  0
  9 10  1  0
 10 11  2  0
 11 12  1  0
 12 13  2  0
 13 14  1  0
  1 15  1  0
 15 16  2  0
 16 17  1  0
 17 18  2  0
 18 19  1  0
 19 20  1  0
 20 21  1  0
 21 22  1  0
 22 23  1  0
 23 24  1  0
 24 25  1  0
 25 26  1  0
 26 27  1  0
 27 28  2  0
 13  4  1  0
 27 15  1  0
 12  7  1  0
 21 18  1  0
  1 29  1  0
  8 30  1  0
  9 31  1  0
 10 32  1  0
 11 33  1  0
 14 34  1  0
 14 35  1  0
 17 36  1  0
 19 37  1  0
 19 38  1  0
 21 39  1  0
 22 40  1  0
 22 41  1  0
 23 42  1  0
 23 43  1  0
 25 44  1  0
 25 45  1  0
 26 46  1  0
 26 47  1  0
M  END
$$$$
confid_4
     RDKit          3D

 47 50  0  0  0  0  0  0  0  0999 V2000
   24.6900   26.1200   35.5300 N   0  0  0  0  0  0  0  0  0  0  0  0
   25.6600   25.6700   34.6600 C   0  0  0  0  0  0  0  0  0  0  0  0
   25.2400   25.0100   33.7200 O   0  0  0  0  0  0  0  0  0  0  0  0
   27.0300   26.2200   34.8800 C   0  0  0  0  0  0  0  0  0  0  0  0
   27.3500   26.7300   36.0700 N   0  0  0  0  0  0  0  0  0  0  0  0
   28.5700   27.1800   36.3300 N   0  0  0  0  0  0  0  0  0  0  0  0
   29.5300   27.1100   35.3900 C   0  0  0  0  0  0  0  0  0  0  0  0
   30.8300   27.5700   35.6500 C   0  0  0  0  0  0  0  0  0  0  0  0
   31.8500   27.5400   34.6900 C   0  0  0  0  0  0  0  0  0  0  0  0
   31.5100   27.1200   33.4000 C   0  0  0  0  0  0  0  0  0  0  0  0
   30.2200   26.6300   33.1100 C   0  0  0  0  0  0  0  0  0  0  0  0
   29.2400   26.6600   34.1000 C   0  0  0  0  0  0  0  0  0  0  0  0
   27.9300   26.2600   33.8100 C   0  0  0  0  0  0  0  0  0  0  0  0
   27.5200   25.7100   32.6100 N   0  0  0  0  0  0  0  0  0  0  0  0
   23.2618   26.0977   35.3050 C   0  0  0  0  0  0  0  0  0  0  0  0
   22.7791   25.6798   34.1678 N   0  0  0  0  0  0  0  0  0  0  0  0
   21.4096   25.7625   33.7673 C   0  0  0  0  0  0  0  0  0  0  0  0
   20.7375   24.6848   33.3754 C   0  0  0  0  0  0  0  0  0  0  0  0
   19.4721   24.4065   32.6222 C   0  0  0  0  0  0  0  0  0  0  0  0
   19.6544   23.0294   32.5686 O   0  0  0  0  0  0  0  0  0  0  0  0
   20.8116   23.1754   33.3306 C   0  0  0  0  0  0  0  0  0  0  0  0
   20.5940   22.4911   34.7009 C   0  0  0  0  0  0  0  0  0  0  0  0
   21.8751   22.3199   35.5263 C   0  0  0  0  0  0  0  0  0  0  0  0
   22.3945   23.5631   35.9421 O   0  0  0  0  0  0  0  0  0  0  0  0
   21.7669   24.0543   37.1167 C   0  0  0  0  0  0  0  0  0  0  0  0
   21.2744   25.4942   36.8984 C   0  0  0  0  0  0  0  0  0  0  0  0
   22.3731   26.4299   36.4456 C   0  0  0  0  0  0  0  0  0  0  0  0
   22.5833   27.4890   37.0945 O   0  0  0  0  0  0  0  0  0  0  0  0
   24.9842   26.4984   36.4583 H   0  0  0  0  0  0  0  0  0  0  0  0
   31.0673   27.9415   36.6393 H   0  0  0  0  0  0  0  0  0  0  0  0
   32.8486   27.8873   34.9214 H   0  0  0  0  0  0  0  0  0  0  0  0
   32.2655   27.1208   32.6250 H   0  0  0  0  0  0  0  0  0  0  0  0
   30.0114   26.2785   32.1078 H   0  0  0  0  0  0  0  0  0  0  0  0
   27.3409   24.6833   32.5417 H   0  0  0  0  0  0  0  0  0  0  0  0
   27.6974   26.2230   31.7183 H   0  0  0  0  0  0  0  0  0  0  0  0
   20.9465   26.7361   33.6723 H   0  0  0  0  0  0  0  0  0  0  0  0
   19.4863   24.8542   31.6046 H   0  0  0  0  0  0  0  0  0  0  0  0
   18.5654   24.6767   33.2083 H   0  0  0  0  0  0  0  0  0  0  0  0
   21.7046   22.8014   32.7815 H   0  0  0  0  0  0  0  0  0  0  0  0
   19.8270   23.0388   35.2906 H   0  0  0  0  0  0  0  0  0  0  0  0
   20.1862   21.4739   34.5132 H   0  0  0  0  0  0  0  0  0  0  0  0
   22.6401   21.8207   34.8947 H   0  0  0  0  0  0  0  0  0  0  0  0
   21.6972   21.6335   36.3860 H   0  0  0  0  0  0  0  0  0  0  0  0
   22.5141   24.0521   37.9387 H   0  0  0  0  0  0  0  0  0  0  0  0
   20.8984   23.4449   37.4614 H   0  0  0  0  0  0  0  0  0  0  0  0
   20.4391   25.4987   36.1705 H   0  0  0  0  0  0  0  0  0  0  0  0
   20.8535   25.8644   37.8586 H   0  0  0  0  0  0  0  0  0  0  0  0
  1  2  1  0
  2  3  2  0
  2  4  1  0
  4  5  2  0
  5  6  1  0
  6  7  2  0
  7  8  1  0
  8  9  2  0
  9 10  1  0
 10 11  2  0
 11 12  1  0
 12 13  2  0
 13 14  1  0
  1 15  1  0
 15 16  2  0
 16 17  1  0
 17 18  2  0
 18 19  1  0
 19 20  1  0
 20 21  1  0
 21 22  1  0
 22 23  1  0
 23 24  1  0
 24 25  1  0
 25 26  1  0
 26 27  1  0
 27 28  2  0
 13  4  1  0
 27 15  1  0
 12  7  1  0
 21 18  1  0
  1 29  1  0
  8 30  1  0
  9 31  1  0
 10 32  1  0
 11 33  1  0
 14 34  1  0
 14 35  1  0
 17 36  1  0
 19 37  1  0
 19 38  1  0
 21 39  1  0
 22 40  1  0
 22 41  1  0
 23 42  1  0
 23 43  1  0
 25 44  1  0
 25 45  1  0
 26 46  1  0
 26 47  1  0
M  END
$$$$
confid_5
     RDKit          3D

 47 50  0  0  0  0  0  0  0  0999 V2000
   24.6900   26.1200   35.5300 N   0  0  0  0  0  0  0  0  0  0  0  0
   25.6600   25.6700   34.6600 C   0  0  0  0  0  0  0  0  0  0  0  0
   25.2400   25.0100   33.7200 O   0  0  0  0  0  0  0  0  0  0  0  0
   27.0300   26.2200   34.8800 C   0  0  0  0  0  0  0  0  0  0  0  0
   27.3500   26.7300   36.0700 N   0  0  0  0  0  0  0  0  0  0  0  0
   28.5700   27.1800   36.3300 N   0  0  0  0  0  0  0  0  0  0  0  0
   29.5300   27.1100   35.3900 C   0  0  0  0  0  0  0  0  0  0  0  0
   30.8300   27.5700   35.6500 C   0  0  0  0  0  0  0  0  0  0  0  0
   31.8500   27.5400   34.6900 C   0  0  0  0  0  0  0  0  0  0  0  0
   31.5100   27.1200   33.4000 C   0  0  0  0  0  0  0  0  0  0  0  0
   30.2200   26.6300   33.1100 C   0  0  0  0  0  0  0  0  0  0  0  0
   29.2400   26.6600   34.1000 C   0  0  0  0  0  0  0  0  0  0  0  0
   27.9300   26.2600   33.8100 C   0  0  0  0  0  0  0  0  0  0  0  0
   27.5200   25.7100   32.6100 N   0  0  0  0  0  0  0  0  0  0  0  0
   23.3274   26.4168   35.1603 C   0  0  0  0  0  0  0  0  0  0  0  0
   23.0329   26.5596   33.8960 N   0  0  0  0  0  0  0  0  0  0  0  0
   21.7612   26.7851   33.2816 C   0  0  0  0  0  0  0  0  0  0  0  0
   20.8698   25.8082   33.1358 C   0  0  0  0  0  0  0  0  0  0  0  0
   19.6278   25.5728   32.3250 C   0  0  0  0  0  0  0  0  0  0  0  0
   19.4441   24.2593   32.7457 O   0  0  0  0  0  0  0  0  0  0  0  0
   20.5753   24.3881   33.5469 C   0  0  0  0  0  0  0  0  0  0  0  0
   20.2274   24.1910   35.0402 C   0  0  0  0  0  0  0  0  0  0  0  0
   19.0671   25.0655   35.5530 C   0  0  0  0  0  0  0  0  0  0  0  0
   19.3485   26.4462   35.4021 O   0  0  0  0  0  0  0  0  0  0  0  0
   19.8892   27.0306   36.5735 C   0  0  0  0  0  0  0  0  0  0  0  0
   21.2659   27.6363   36.2748 C   0  0  0  0  0  0  0  0  0  0  0  0
   22.3439   26.5854   36.2622 C   0  0  0  0  0  0  0  0  0  0  0  0
   22.5022   25.8917   37.3041 O   0  0  0  0  0  0  0  0  0  0  0  0
   24.9532   26.2712   36.5309 H   0  0  0  0  0  0  0  0  0  0  0  0
   31.0672   27.9418   36.6393 H   0  0  0  0  0  0  0  0  0  0  0  0
   32.8482   27.8882   34.9211 H   0  0  0  0  0  0  0  0  0  0  0  0
   32.2639   27.1261   32.6235 H   0  0  0  0  0  0  0  0  0  0  0  0
   30.0100   26.3032   32.1006 H   0  0  0  0  0  0  0  0  0  0  0  0
   26.6908   26.0979   32.1077 H   0  0  0  0  0  0  0  0  0  0  0  0
   28.1312   25.0428   32.0895 H   0  0  0  0  0  0  0  0  0  0  0  0
   21.6241   27.6862   32.6984 H   0  0  0  0  0  0  0  0  0  0  0  0
   19.8271   25.6234   31.2310 H   0  0  0  0  0  0  0  0  0  0  0  0
   18.7858   26.2260   32.6443 H   0  0  0  0  0  0  0  0  0  0  0  0
   21.3796   23.6937   33.2167 H   0  0  0  0  0  0  0  0  0  0  0  0
   19.9396   23.1277   35.1816 H   0  0  0  0  0  0  0  0  0  0  0  0
   21.1297   24.3489   35.6580 H   0  0  0  0  0  0  0  0  0  0  0  0
   18.1624   24.8378   34.9507 H   0  0  0  0  0  0  0  0  0  0  0  0
   18.7955   24.7731   36.5933 H   0  0  0  0  0  0  0  0  0  0  0  0
   19.2119   27.8574   36.8745 H   0  0  0  0  0  0  0  0  0  0  0  0
   19.9590   26.3535   37.4560 H   0  0  0  0  0  0  0  0  0  0  0  0
   21.2353   28.2257   35.3366 H   0  0  0  0  0  0  0  0  0  0  0  0
   21.5134   28.3565   37.0845 H   0  0  0  0  0  0  0  0  0  0  0  0
  1  2  1  0
  2  3  2  0
  2  4  1  0
  4  5  2  0
  5  6  1  0
  6  7  2  0
  7  8  1  0
  8  9  2  0
  9 10  1  0
 10 11  2  0
 11 12  1  0
 12 13  2  0
 13 14  1  0
  1 15  1  0
 15 16  2  0
 16 17  1  0
 17 18  2  0
 18 19  1  0
 19 20  1  0
 20 21  1  0
 21 22  1  0
 22 23  1  0
 23 24  1  0
 24 25  1  0
 25 26  1  0
 26 27  1  0
 27 28  2  0
 13  4  1  0
 27 15  1  0
 12  7  1  0
 21 18  1  0
  1 29  1  0
  8 30  1  0
  9 31  1  0
 10 32  1  0
 11 33  1  0
 14 34  1  0
 14 35  1  0
 17 36  1  0
 19 37  1  0
 19 38  1  0
 21 39  1  0
 22 40  1  0
 22 41  1  0
 23 42  1  0
 23 43  1  0
 25 44  1  0
 25 45  1  0
 26 46  1  0
 26 47  1  0
M  END
$$$$
confid_6
     RDKit          3D

 47 50  0  0  0  0  0  0  0  0999 V2000
   24.6900   26.1200   35.5300 N   0  0  0  0  0  0  0  0  0  0  0  0
   25.6600   25.6700   34.6600 C   0  0  0  0  0  0  0  0  0  0  0  0
   25.2400   25.0100   33.7200 O   0  0  0  0  0  0  0  0  0  0  0  0
   27.0300   26.2200   34.8800 C   0  0  0  0  0  0  0  0  0  0  0  0
   27.3500   26.7300   36.0700 N   0  0  0  0  0  0  0  0  0  0  0  0
   28.5700   27.1800   36.3300 N   0  0  0  0  0  0  0  0  0  0  0  0
   29.5300   27.1100   35.3900 C   0  0  0  0  0  0  0  0  0  0  0  0
   30.8300   27.5700   35.6500 C   0  0  0  0  0  0  0  0  0  0  0  0
   31.8500   27.5400   34.6900 C   0  0  0  0  0  0  0  0  0  0  0  0
   31.5100   27.1200   33.4000 C   0  0  0  0  0  0  0  0  0  0  0  0
   30.2200   26.6300   33.1100 C   0  0  0  0  0  0  0  0  0  0  0  0
   29.2400   26.6600   34.1000 C   0  0  0  0  0  0  0  0  0  0  0  0
   27.9300   26.2600   33.8100 C   0  0  0  0  0  0  0  0  0  0  0  0
   27.5200   25.7100   32.6100 N   0  0  0  0  0  0  0  0  0  0  0  0
   23.6061   25.2579   35.9062 C   0  0  0  0  0  0  0  0  0  0  0  0
   22.7059   24.9791   35.0090 N   0  0  0  0  0  0  0  0  0  0  0  0
   21.5767   24.1109   35.1495 C   0  0  0  0  0  0  0  0  0  0  0  0
   20.4538   24.5129   35.7436 C   0  0  0  0  0  0  0  0  0  0  0  0
   19.0186   24.0817   35.7376 C   0  0  0  0  0  0  0  0  0  0  0  0
   18.5462   25.1772   36.4432 O   0  0  0  0  0  0  0  0  0  0  0  0
   19.8586   25.6334   36.5653 C   0  0  0  0  0  0  0  0  0  0  0  0
   20.2794   25.6084   38.0555 C   0  0  0  0  0  0  0  0  0  0  0  0
   20.9851   26.8940   38.5243 C   0  0  0  0  0  0  0  0  0  0  0  0
   22.3625   26.8851   38.2045 O   0  0  0  0  0  0  0  0  0  0  0  0
   23.0974   26.1247   39.1559 C   0  0  0  0  0  0  0  0  0  0  0  0
   24.1932   25.3330   38.4421 C   0  0  0  0  0  0  0  0  0  0  0  0
   23.6332   24.6096   37.2427 C   0  0  0  0  0  0  0  0  0  0  0  0
   23.1914   23.4380   37.3866 O   0  0  0  0  0  0  0  0  0  0  0  0
   24.8454   26.9864   36.0953 H   0  0  0  0  0  0  0  0  0  0  0  0
   31.0665   27.9405   36.6400 H   0  0  0  0  0  0  0  0  0  0  0  0
   32.8482   27.8887   34.9209 H   0  0  0  0  0  0  0  0  0  0  0  0
   32.2638   27.1273   32.6233 H   0  0  0  0  0  0  0  0  0  0  0  0
   30.0107   26.3000   32.1014 H   0  0  0  0  0  0  0  0  0  0  0  0
   28.1320   25.0463   32.0864 H   0  0  0  0  0  0  0  0  0  0  0  0
   26.6953   26.1050   32.1051 H   0  0  0  0  0  0  0  0  0  0  0  0
   21.5230   23.2374   34.5117 H   0  0  0  0  0  0  0  0  0  0  0  0
   18.8691   23.1330   36.2976 H   0  0  0  0  0  0  0  0  0  0  0  0
   18.5941   24.0518   34.7073 H   0  0  0  0  0  0  0  0  0  0  0  0
   19.9847   26.6238   36.0614 H   0  0  0  0  0  0  0  0  0  0  0  0
   20.9006   24.7221   38.2678 H   0  0  0  0  0  0  0  0  0  0  0  0
   19.3668   25.4970   38.6787 H   0  0  0  0  0  0  0  0  0  0  0  0
   20.5198   27.7737   38.0382 H   0  0  0  0  0  0  0  0  0  0  0  0
   20.8174   27.0475   39.6200 H   0  0  0  0  0  0  0  0  0  0  0  0
   23.5620   26.8182   39.8869 H   0  0  0  0  0  0  0  0  0  0  0  0
   22.4807   25.4048   39.7440 H   0  0  0  0  0  0  0  0  0  0  0  0
   24.6276   24.5948   39.1479 H   0  0  0  0  0  0  0  0  0  0  0  0
   25.0097   26.0127   38.1512 H   0  0  0  0  0  0  0  0  0  0  0  0
  1  2  1  0
  2  3  2  0
  2  4  1  0
  4  5  2  0
  5  6  1  0
  6  7  2  0
  7  8  1  0
  8  9  2  0
  9 10  1  0
 10 11  2  0
 11 12  1  0
 12 13  2  0
 13 14  1  0
  1 15  1  0
 15 16  2  0
 16 17  1  0
 17 18  2  0
 18 19  1  0
 19 20  1  0
 20 21  1  0
 21 22  1  0
 22 23  1  0
 23 24  1  0
 24 25  1  0
 25 26  1  0
 26 27  1  0
 27 28  2  0
 13  4  1  0
 27 15  1  0
 12  7  1  0
 21 18  1  0
  1 29  1  0
  8 30  1  0
  9 31  1  0
 10 32  1  0
 11 33  1  0
 14 34  1  0
 14 35  1  0
 17 36  1  0
 19 37  1  0
 19 38  1  0
 21 39  1  0
 22 40  1  0
 22 41  1  0
 23 42  1  0
 23 43  1  0
 25 44  1  0
 25 45  1  0
 26 46  1  0
 26 47  1  0
M  END
$$$$
