confid_0
     RDKit          3D

 45 48  0  0  0  0  0  0  0  0999 V2000
   24.5500   26.3900   36.2500 N   0  0  0  0  0  0  0  0  0  0  0  0
   25.6000   26.1300   35.4000 C   0  0  0  0  0  0  0  0  0  0  0  0
   25.4300   25.4300   34.4200 O   0  0  0  0  0  0  0  0  0  0  0  0
   26.9800   26.6300   35.7100 C   0  0  0  0  0  0  0  0  0  0  0  0
   27.3200   26.8200   36.9800 N   0  0  0  0  0  0  0  0  0  0  0  0
   28.4700   27.4000   37.3100 N   0  0  0  0  0  0  0  0  0  0  0  0
   29.4000   27.6300   36.3700 C   0  0  0  0  0  0  0  0  0  0  0  0
   30.6600   28.0500   36.8000 C   0  0  0  0  0  0  0  0  0  0  0  0
   31.5700   28.3600   35.7800 C   0  0  0  0  0  0  0  0  0  0  0  0
   31.3700   28.1000   34.4300 C   0  0  0  0  0  0  0  0  0  0  0  0
   30.1200   27.5900   34.0500 C   0  0  0  0  0  0  0  0  0  0  0  0
   29.1500   27.3400   35.0300 C   0  0  0  0  0  0  0  0  0  0  0  0
   27.8800   26.8900   34.6600 C   0  0  0  0  0  0  0  0  0  0  0  0
   27.4800   26.6100   33.3700 N   0  0  0  0  0  0  0  0  0  0  0  0
   31.0033   28.2592   38.2317 C   0  0  0  0  0  0  0  0  0  0  0  0
   31.7605   29.3621   38.6443 C   0  0  0  0  0  0  0  0  0  0  0  0
   32.0797   29.5216   39.9977 C   0  0  0  0  0  0  0  0  0  0  0  0
   32.8504   30.7429   40.4389 C   0  0  0  0  0  0  0  0  0  0  0  0
   33.7312   30.4226   41.6477 C   0  0  0  0  0  0  0  0  0  0  0  0
   32.9250   29.8259   42.7181 N   0  0  0  0  0  0  0  0  0  0  0  0
   31.9423   28.8291   42.3807 C   0  0  0  0  0  0  0  0  0  0  0  0
   31.3505   28.2019   43.3003 O   0  0  0  0  0  0  0  0  0  0  0  0
   31.6076   28.5902   40.9483 C   0  0  0  0  0  0  0  0  0  0  0  0
   30.8518   27.4813   40.4879 C   0  0  0  0  0  0  0  0  0  0  0  0
   30.5804   27.3615   39.1603 N   0  0  0  0  0  0  0  0  0  0  0  0
   30.3331   26.4104   41.4024 C   0  0  0  0  0  0  0  0  0  0  0  0
   33.1346   30.2097   44.1160 C   0  0  0  0  0  0  0  0  0  0  0  0
   23.6001   26.0041   36.0503 H   0  0  0  0  0  0  0  0  0  0  0  0
   24.6739   26.9931   37.0934 H   0  0  0  0  0  0  0  0  0  0  0  0
   32.5451   28.7425   36.0536 H   0  0  0  0  0  0  0  0  0  0  0  0
   32.1362   28.3132   33.6956 H   0  0  0  0  0  0  0  0  0  0  0  0
   29.9379   27.4163   32.9984 H   0  0  0  0  0  0  0  0  0  0  0  0
   28.1242   26.1385   32.6979 H   0  0  0  0  0  0  0  0  0  0  0  0
   26.5962   27.0149   32.9873 H   0  0  0  0  0  0  0  0  0  0  0  0
   32.0828   30.1049   37.9249 H   0  0  0  0  0  0  0  0  0  0  0  0
   32.1303   31.5457   40.7074 H   0  0  0  0  0  0  0  0  0  0  0  0
   33.4983   31.1161   39.6158 H   0  0  0  0  0  0  0  0  0  0  0  0
   34.2260   31.3567   41.9910 H   0  0  0  0  0  0  0  0  0  0  0  0
   34.5230   29.7027   41.3459 H   0  0  0  0  0  0  0  0  0  0  0  0
   29.5562   26.8295   42.0754 H   0  0  0  0  0  0  0  0  0  0  0  0
   31.1650   25.9769   41.9961 H   0  0  0  0  0  0  0  0  0  0  0  0
   29.8706   25.5886   40.8150 H   0  0  0  0  0  0  0  0  0  0  0  0
   32.1983   30.6406   44.5291 H   0  0  0  0  0  0  0  0  0  0  0  0
   33.9431   30.9644   44.2139 H   0  0  0  0  0  0  0  0  0  0  0  0
   33.4209   29.3170   44.7111 H   0  0  0  0  0  0  0  0  0  0  0  0
  1  2  1  0
  2  3  2  0
  2  4  1  0
  4  5  2  0
  5  6  1  0
  6  7  2  0
  7  8  1  0
  8  9  2  0
  9 10  1  0
 10 11  2  0
 11 12  1  0
 12 13  2  0
 13 14  1  0
  8 15  1  0
 15 16  2  0
 16 17  1  0
 17 18  1  0
 18 19  1  0
 19 20  1  0
 20 21  1  0
 21 22  2  0
 21 23  1  0
 23 24  1  0
 24 25  2  0
 24 26  1  0
 20 27  1  0
 13  4  1  0
 25 15  1  0
 12  7  1  0
 23 17  2  0
  1 28  1  0
  1 29  1  0
  9 30  1  0
 10 31  1  0
 11 32  1  0
 14 33  1  0
 14 34  1  0
 16 35  1  0
 18 36  1  0
 18 37  1  0
 19 38  1  0
 19 39  1  0
 26 40  1  0
 26 41  1  0
 26 42  1  0
 27 43  1  0
 27 44  1  0
 27 45  1  0
M  END
$$$$
confid_1
     RDKit          3D

 45 48  0  0  0  0  0  0  0  0999 V2000
   24.5500   26.3900   36.2500 N   0  0  0  0  0  0  0  0  0  0  0  0
   25.6000   26.1300   35.4000 C   0  0  0  0  0  0  0  0  0  0  0  0
   25.4300   25.4300   34.4200 O   0  0  0  0  0  0  0  0  0  0  0  0
   26.9800   26.6300   35.7100 C   0  0  0  0  0  0  0  0  0  0  0  0
   27.3200   26.8200   36.9800 N   0  0  0  0  0  0  0  0  0  0  0  0
   28.4700   27.4000   37.3100 N   0  0  0  0  0  0  0  0  0  0  0  0
   29.4000   27.6300   36.3700 C   0  0  0  0  0  0  0  0  0  0  0  0
   30.6600   28.0500   36.8000 C   0  0  0  0  0  0  0  0  0  0  0  0
   31.5700   28.3600   35.7800 C   0  0  0  0  0  0  0  0  0  0  0  0
   31.3700   28.1000   34.4300 C   0  0  0  0  0  0  0  0  0  0  0  0
   30.1200   27.5900   34.0500 C   0  0  0  0  0  0  0  0  0  0  0  0
   29.1500   27.3400   35.0300 C   0  0  0  0  0  0  0  0  0  0  0  0
   27.8800   26.8900   34.6600 C   0  0  0  0  0  0  0  0  0  0  0  0
   27.4800   26.6100   33.3700 N   0  0  0  0  0  0  0  0  0  0  0  0
   30.9987   28.3135   38.2245 C   0  0  0  0  0  0  0  0  0  0  0  0
   32.2754   28.0313   38.7234 C   0  0  0  0  0  0  0  0  0  0  0  0
   32.5770   28.3037   40.0627 C   0  0  0  0  0  0  0  0  0  0  0  0
   33.9404   27.9450   40.6037 C   0  0  0  0  0  0  0  0  0  0  0  0
   34.3630   28.9208   41.7033 C   0  0  0  0  0  0  0  0  0  0  0  0
   33.3274   28.9959   42.7395 N   0  0  0  0  0  0  0  0  0  0  0  0
   31.9450   29.0639   42.3429 C   0  0  0  0  0  0  0  0  0  0  0  0
   31.0577   29.2798   43.2121 O   0  0  0  0  0  0  0  0  0  0  0  0
   31.5830   28.8301   40.9164 C   0  0  0  0  0  0  0  0  0  0  0  0
   30.3050   29.1132   40.3689 C   0  0  0  0  0  0  0  0  0  0  0  0
   30.0649   28.8449   39.0570 N   0  0  0  0  0  0  0  0  0  0  0  0
   29.1868   29.7106   41.1719 C   0  0  0  0  0  0  0  0  0  0  0  0
   33.6893   29.0352   44.1582 C   0  0  0  0  0  0  0  0  0  0  0  0
   24.6739   26.9931   37.0934 H   0  0  0  0  0  0  0  0  0  0  0  0
   23.6001   26.0039   36.0504 H   0  0  0  0  0  0  0  0  0  0  0  0
   32.5274   28.7871   36.0516 H   0  0  0  0  0  0  0  0  0  0  0  0
   32.1339   28.3183   33.6949 H   0  0  0  0  0  0  0  0  0  0  0  0
   29.9362   27.3931   33.0015 H   0  0  0  0  0  0  0  0  0  0  0  0
   27.4183   25.6173   33.0515 H   0  0  0  0  0  0  0  0  0  0  0  0
   27.5825   27.3394   32.6301 H   0  0  0  0  0  0  0  0  0  0  0  0
   33.0260   27.5857   38.0815 H   0  0  0  0  0  0  0  0  0  0  0  0
   33.9040   26.9140   41.0171 H   0  0  0  0  0  0  0  0  0  0  0  0
   34.7023   27.9697   39.7942 H   0  0  0  0  0  0  0  0  0  0  0  0
   35.3335   28.5859   42.1291 H   0  0  0  0  0  0  0  0  0  0  0  0
   34.5090   29.9311   41.2627 H   0  0  0  0  0  0  0  0  0  0  0  0
   28.8434   28.9876   41.9409 H   0  0  0  0  0  0  0  0  0  0  0  0
   29.5207   30.6546   41.6514 H   0  0  0  0  0  0  0  0  0  0  0  0
   28.3225   29.9499   40.5161 H   0  0  0  0  0  0  0  0  0  0  0  0
   33.2422   28.1639   44.6816 H   0  0  0  0  0  0  0  0  0  0  0  0
   33.3091   29.9726   44.6164 H   0  0  0  0  0  0  0  0  0  0  0  0
   34.7903   29.0036   44.2983 H   0  0  0  0  0  0  0  0  0  0  0  0
  1  2  1  0
  2  3  2  0
  2  4  1  0
  4  5  2  0
  5  6  1  0
  6  7  2  0
  7  8  1  0
  8  9  2  0
  9 10  1  0
 10 11  2  0
 11 12  1  0
 12 13  2  0
 13 14  1  0
  8 15  1  0
 15 16  2  0
 16 17  1  0
 17 18  1  0
 18 19  1  0
 19 20  1  0
 20 21  1  0
 21 22  2  0
 21 23  1  0
 23 24  1  0
 24 25  2  0
 24 26  1  0
 20 27  1  0
 13  4  1  0
 25 15  1  0
 12  7  1  0
 23 17  2  0
  1 28  1  0
  1 29  1  0
  9 30  1  0
 10 31  1  0
 11 32  1  0
 14 33  1  0
 14 34  1  0
 16 35  1  0
 18 36  1  0
 18 37  1  0
 19 38  1  0
 19 39  1  0
 26 40  1  0
 26 41  1  0
 26 42  1  0
 27 43  1  0
 27 44  1  0
 27 45  1  0
M  END
$$$$
confid_2
     RDKit          3D

 45 48  0  0  0  0  0  0  0  0999 V2000
   24.5500   26.3900   36.2500 N   0  0  0  0  0  0  0  0  0  0  0  0
   25.6000   26.1300   35.4000 C   0  0  0  0  0  0  0  0  0  0  0  0
   25.4300   25.4300   34.4200 O   0  0  0  0  0  0  0  0  0  0  0  0
   26.9800   26.6300   35.7100 C   0  0  0  0  0  0  0  0  0  0  0  0
   27.3200   26.8200   36.9800 N   0  0  0  0  0  0  0  0  0  0  0  0
   28.4700   27.4000   37.3100 N   0  0  0  0  0  0  0  0  0  0  0  0
   29.4000   27.6300   36.3700 C   0  0  0  0  0  0  0  0  0  0  0  0
   30.6600   28.0500   36.8000 C   0  0  0  0  0  0  0  0  0  0  0  0
   31.5700   28.3600   35.7800 C   0  0  0  0  0  0  0  0  0  0  0  0
   31.3700   28.1000   34.4300 C   0  0  0  0  0  0  0  0  0  0  0  0
   30.1200   27.5900   34.0500 C   0  0  0  0  0  0  0  0  0  0  0  0
   29.1500   27.3400   35.0300 C   0  0  0  0  0  0  0  0  0  0  0  0
   27.8800   26.8900   34.6600 C   0  0  0  0  0  0  0  0  0  0  0  0
   27.4800   26.6100   33.3700 N   0  0  0  0  0  0  0  0  0  0  0  0
   30.9982   28.3138   38.2245 C   0  0  0  0  0  0  0  0  0  0  0  0
   32.2737   28.0282   38.7250 C   0  0  0  0  0  0  0  0  0  0  0  0
   32.5703   28.2879   40.0679 C   0  0  0  0  0  0  0  0  0  0  0  0
   33.9636   28.0204   40.5852 C   0  0  0  0  0  0  0  0  0  0  0  0
   33.9281   27.6158   42.0600 C   0  0  0  0  0  0  0  0  0  0  0  0
   33.1992   28.6193   42.8433 N   0  0  0  0  0  0  0  0  0  0  0  0
   31.9743   29.1626   42.3165 C   0  0  0  0  0  0  0  0  0  0  0  0
   31.2623   29.9101   43.0402 O   0  0  0  0  0  0  0  0  0  0  0  0
   31.5940   28.8699   40.9058 C   0  0  0  0  0  0  0  0  0  0  0  0
   30.3090   29.1303   40.3639 C   0  0  0  0  0  0  0  0  0  0  0  0
   30.0651   28.8486   39.0555 N   0  0  0  0  0  0  0  0  0  0  0  0
   29.1824   29.7028   41.1733 C   0  0  0  0  0  0  0  0  0  0  0  0
   33.6872   29.0427   44.1577 C   0  0  0  0  0  0  0  0  0  0  0  0
   23.6001   26.0040   36.0503 H   0  0  0  0  0  0  0  0  0  0  0  0
   24.6739   26.9932   37.0934 H   0  0  0  0  0  0  0  0  0  0  0  0
   32.5268   28.7884   36.0515 H   0  0  0  0  0  0  0  0  0  0  0  0
   32.1320   28.3238   33.6944 H   0  0  0  0  0  0  0  0  0  0  0  0
   29.9369   27.4189   32.9982 H   0  0  0  0  0  0  0  0  0  0  0  0
   26.5962   27.0148   32.9874 H   0  0  0  0  0  0  0  0  0  0  0  0
   28.1243   26.1389   32.6978 H   0  0  0  0  0  0  0  0  0  0  0  0
   33.0283   27.5935   38.0804 H   0  0  0  0  0  0  0  0  0  0  0  0
   34.4479   27.2052   40.0044 H   0  0  0  0  0  0  0  0  0  0  0  0
   34.5740   28.9418   40.4685 H   0  0  0  0  0  0  0  0  0  0  0  0
   34.9706   27.4995   42.4273 H   0  0  0  0  0  0  0  0  0  0  0  0
   33.4147   26.6347   42.1603 H   0  0  0  0  0  0  0  0  0  0  0  0
   28.2428   29.7098   40.5804 H   0  0  0  0  0  0  0  0  0  0  0  0
   29.0075   29.0844   42.0786 H   0  0  0  0  0  0  0  0  0  0  0  0
   29.4148   30.7496   41.4601 H   0  0  0  0  0  0  0  0  0  0  0  0
   32.9227   28.8192   44.9315 H   0  0  0  0  0  0  0  0  0  0  0  0
   33.8894   30.1344   44.1469 H   0  0  0  0  0  0  0  0  0  0  0  0
   34.6236   28.5135   44.4338 H   0  0  0  0  0  0  0  0  0  0  0  0
  1  2  1  0
  2  3  2  0
  2  4  1  0
  4  5  2  0
  5  6  1  0
  6  7  2  0
  7  8  1  0
  8  9  2  0
  9 10  1  0
 10 11  2  0
 11 12  1  0
 12 13  2  0
 13 14  1  0
  8 15  1  0
 15 16  2  0
 16 17  1  0
 17 18  1  0
 18 19  1  0
 19 20  1  0
 20 21  1  0
 21 22  2  0
 21 23  1  0
 23 24  1  0
 24 25  2  0
 24 26  1  0
 20 27  1  0
 13  4  1  0
 25 15  1  0
 12  7  1  0
 23 17  2  0
  1 28  1  0
  1 29  1  0
  9 30  1  0
 10 31  1  0
 11 32  1  0
 14 33  1  0
 14 34  1  0
 16 35  1  0
 18 36  1  0
 18 37  1  0
 19 38  1  0
 19 39  1  0
 26 40  1  0
 26 41  1  0
 26 42  1  0
 27 43  1  0
 27 44  1  0
 27 45  1  0
M  END
$$$$
confid_3
     RDKit          3D

 45 48  0  0  0  0  0  0  0  0999 V2000
   24.5500   26.3900   36.2500 N   0  0  0  0  0  0  0  0  0  0  0  0
   25.6000   26.1300   35.4000 C   0  0  0  0  0  0  0  0  0  0  0  0
   25.4300   25.4300   34.4200 O   0  0  0  0  0  0  0  0  0  0  0  0
   26.9800   26.6300   35.7100 C   0  0  0  0  0  0  0  0  0  0  0  0
   27.3200   26.8200   36.9800 N   0  0  0  0  0  0  0  0  0  0  0  0
   28.4700   27.4000   37.3100 N   0  0  0  0  0  0  0  0  0  0  0  0
   29.4000   27.6300   36.3700 C   0  0  0  0  0  0  0  0  0  0  0  0
   30.6600   28.0500   36.8000 C   0  0  0  0  0  0  0  0  0  0  0  0
   31.5700   28.3600   35.7800 C   0  0  0  0  0  0  0  0  0  0  0  0
   31.3700   28.1000   34.4300 C   0  0  0  0  0  0  0  0  0  0  0  0
   30.1200   27.5900   34.0500 C   0  0  0  0  0  0  0  0  0  0  0  0
   29.1500   27.3400   35.0300 C   0  0  0  0  0  0  0  0  0  0  0  0
   27.8800   26.8900   34.6600 C   0  0  0  0  0  0  0  0  0  0  0  0
   27.4800   26.6100   33.3700 N   0  0  0  0  0  0  0  0  0  0  0  0
   31.0161   28.2952   38.2189 C   0  0  0  0  0  0  0  0  0  0  0  0
   30.7348   27.3523   39.2135 C   0  0  0  0  0  0  0  0  0  0  0  0
   31.1076   27.6057   40.5384 C   0  0  0  0  0  0  0  0  0  0  0  0
   30.7475   26.6090   41.6143 C   0  0  0  0  0  0  0  0  0  0  0  0
   31.7968   26.6066   42.7275 C   0  0  0  0  0  0  0  0  0  0  0  0
   31.9975   27.9673   43.2375 N   0  0  0  0  0  0  0  0  0  0  0  0
   32.0848   29.0584   42.3021 C   0  0  0  0  0  0  0  0  0  0  0  0
   32.4045   30.2068   42.7124 O   0  0  0  0  0  0  0  0  0  0  0  0
   31.7466   28.8204   40.8708 C   0  0  0  0  0  0  0  0  0  0  0  0
   32.0452   29.7334   39.8264 C   0  0  0  0  0  0  0  0  0  0  0  0
   31.6722   29.4375   38.5518 N   0  0  0  0  0  0  0  0  0  0  0  0
   32.7716   31.0263   40.0562 C   0  0  0  0  0  0  0  0  0  0  0  0
   32.1403   28.2154   44.6739 C   0  0  0  0  0  0  0  0  0  0  0  0
   23.6001   26.0040   36.0503 H   0  0  0  0  0  0  0  0  0  0  0  0
   24.6740   26.9931   37.0934 H   0  0  0  0  0  0  0  0  0  0  0  0
   32.5367   28.7618   36.0591 H   0  0  0  0  0  0  0  0  0  0  0  0
   32.1345   28.3176   33.6952 H   0  0  0  0  0  0  0  0  0  0  0  0
   29.9375   27.4174   32.9983 H   0  0  0  0  0  0  0  0  0  0  0  0
   28.1242   26.1387   32.6978 H   0  0  0  0  0  0  0  0  0  0  0  0
   26.5962   27.0149   32.9873 H   0  0  0  0  0  0  0  0  0  0  0  0
   30.2462   26.4194   38.9594 H   0  0  0  0  0  0  0  0  0  0  0  0
   30.6759   25.5833   41.1908 H   0  0  0  0  0  0  0  0  0  0  0  0
   29.7572   26.8805   42.0393 H   0  0  0  0  0  0  0  0  0  0  0  0
   32.7600   26.2248   42.3245 H   0  0  0  0  0  0  0  0  0  0  0  0
   31.4638   25.9200   43.5355 H   0  0  0  0  0  0  0  0  0  0  0  0
   32.1369   31.7181   40.6483 H   0  0  0  0  0  0  0  0  0  0  0  0
   33.7317   30.8389   40.5813 H   0  0  0  0  0  0  0  0  0  0  0  0
   33.0048   31.5182   39.0877 H   0  0  0  0  0  0  0  0  0  0  0  0
   32.0784   27.2729   45.2577 H   0  0  0  0  0  0  0  0  0  0  0  0
   33.1263   28.6841   44.8772 H   0  0  0  0  0  0  0  0  0  0  0  0
   31.3331   28.8963   45.0171 H   0  0  0  0  0  0  0  0  0  0  0  0
  1  2  1  0
  2  3  2  0
  2  4  1  0
  4  5  2  0
  5  6  1  0
  6  7  2  0
  7  8  1  0
  8  9  2  0
  9 10  1  0
 10 11  2  0
 11 12  1  0
 12 13  2  0
 13 14  1  0
  8 15  1  0
 15 16  2  0
 16 17  1  0
 17 18  1  0
 18 19  1  0
 19 20  1  0
 20 21  1  0
 21 22  2  0
 21 23  1  0
 23 24  1  0
 24 25  2  0
 24 26  1  0
 20 27  1  0
 13  4  1  0
 25 15  1  0
 12  7  1  0
 23 17  2  0
  1 28  1  0
  1 29  1  0
  9 30  1  0
 10 31  1  0
 11 32  1  0
 14 33  1  0
 14 34  1  0
 16 35  1  0
 18 36  1  0
 18 37  1  0
 19 38  1  0
 19 39  1  0
 26 40  1  0
 26 41  1  0
 26 42  1  0
 27 43  1  0
 27 44  1  0
 27 45  1  0
M  END
$$$$
confid_4
     RDKit          3D

 45 48  0  0  0  0  0  0  0  0999 V2000
   24.5500   26.3900   36.2500 N   0  0  0  0  0  0  0  0  0  0  0  0
   25.6000   26.1300   35.4000 C   0  0  0  0  0  0  0  0  0  0  0  0
   25.4300   25.4300   34.4200 O   0  0  0  0  0  0  0  0  0  0  0  0
   26.9800   26.6300   35.7100 C   0  0  0  0  0  0  0  0  0  0  0  0
   27.3200   26.8200   36.9800 N   0  0  0  0  0  0  0  0  0  0  0  0
   28.4700   27.4000   37.3100 N   0  0  0  0  0  0  0  0  0  0  0  0
   29.4000   27.6300   36.3700 C   0  0  0  0  0  0  0  0  0  0  0  0
   30.6600   28.0500   36.8000 C   0  0  0  0  0  0  0  0  0  0  0  0
   31.5700   28.3600   35.7800 C   0  0  0  0  0  0  0  0  0  0  0  0
   31.3700   28.1000   34.4300 C   0  0  0  0  0  0  0  0  0  0  0  0
   30.1200   27.5900   34.0500 C   0  0  0  0  0  0  0  0  0  0  0  0
   29.1500   27.3400   35.0300 C   0  0  0  0  0  0  0  0  0  0  0  0
   27.8800   26.8900   34.6600 C   0  0  0  0  0  0  0  0  0  0  0  0
   27.4800   26.6100   33.3700 N   0  0  0  0  0  0  0  0  0  0  0  0
   31.0162   28.2949   38.2191 C   0  0  0  0  0  0  0  0  0  0  0  0
   30.7295   27.3546   39.2144 C   0  0  0  0  0  0  0  0  0  0  0  0
   31.0897   27.6138   40.5415 C   0  0  0  0  0  0  0  0  0  0  0  0
   30.8144   26.5740   41.6011 C   0  0  0  0  0  0  0  0  0  0  0  0
   30.5374   27.2355   42.9521 C   0  0  0  0  0  0  0  0  0  0  0  0
   31.6312   28.1476   43.3034 N   0  0  0  0  0  0  0  0  0  0  0  0
   32.1776   29.0090   42.2871 C   0  0  0  0  0  0  0  0  0  0  0  0
   33.0096   29.9001   42.6078 O   0  0  0  0  0  0  0  0  0  0  0  0
   31.7840   28.8004   40.8649 C   0  0  0  0  0  0  0  0  0  0  0  0
   32.0631   29.7237   39.8237 C   0  0  0  0  0  0  0  0  0  0  0  0
   31.6774   29.4344   38.5514 N   0  0  0  0  0  0  0  0  0  0  0  0
   32.7680   31.0280   40.0565 C   0  0  0  0  0  0  0  0  0  0  0  0
   32.1425   28.2103   44.6745 C   0  0  0  0  0  0  0  0  0  0  0  0
   23.6001   26.0041   36.0503 H   0  0  0  0  0  0  0  0  0  0  0  0
   24.6740   26.9931   37.0934 H   0  0  0  0  0  0  0  0  0  0  0  0
   32.5367   28.7617   36.0590 H   0  0  0  0  0  0  0  0  0  0  0  0
   32.1345   28.3175   33.6952 H   0  0  0  0  0  0  0  0  0  0  0  0
   29.9375   27.4174   32.9983 H   0  0  0  0  0  0  0  0  0  0  0  0
   28.1242   26.1387   32.6978 H   0  0  0  0  0  0  0  0  0  0  0  0
   26.5962   27.0149   32.9873 H   0  0  0  0  0  0  0  0  0  0  0  0
   30.2500   26.4175   38.9585 H   0  0  0  0  0  0  0  0  0  0  0  0
   31.6986   25.9066   41.6894 H   0  0  0  0  0  0  0  0  0  0  0  0
   29.9349   25.9534   41.3220 H   0  0  0  0  0  0  0  0  0  0  0  0
   30.4119   26.4439   43.7222 H   0  0  0  0  0  0  0  0  0  0  0  0
   29.5891   27.8128   42.8920 H   0  0  0  0  0  0  0  0  0  0  0  0
   32.7811   31.6341   39.1255 H   0  0  0  0  0  0  0  0  0  0  0  0
   33.8196   30.8425   40.3592 H   0  0  0  0  0  0  0  0  0  0  0  0
   32.2396   31.6156   40.8364 H   0  0  0  0  0  0  0  0  0  0  0  0
   32.0149   29.2379   45.0757 H   0  0  0  0  0  0  0  0  0  0  0  0
   31.6011   27.5084   45.3432 H   0  0  0  0  0  0  0  0  0  0  0  0
   33.2206   27.9447   44.6834 H   0  0  0  0  0  0  0  0  0  0  0  0
  1  2  1  0
  2  3  2  0
  2  4  1  0
  4  5  2  0
  5  6  1  0
  6  7  2  0
  7  8  1  0
  8  9  2  0
  9 10  1  0
 10 11  2  0
 11 12  1  0
 12 13  2  0
 13 14  1  0
  8 15  1  0
 15 16  2  0
 16 17  1  0
 17 18  1  0
 18 19  1  0
 19 20  1  0
 20 21  1  0
 21 22  2  0
 21 23  1  0
 23 24  1  0
 24 25  2  0
 24 26  1  0
 20 27  1  0
 13  4  1  0
 25 15  1  0
 12  7  1  0
 23 17  2  0
  1 28  1  0
  1 29  1  0
  9 30  1  0
 10 31  1  0
 11 32  1  0
 14 33  1  0
 14 34  1  0
 16 35  1  0
 18 36  1  0
 18 37  1  0
 19 38  1  0
 19 39  1  0
 26 40  1  0
 26 41  1  0
 26 42  1  0
 27 43  1  0
 27 44  1  0
 27 45  1  0
M  END
$$$$
