confid_0
     RDKit          3D

 54 58  0  0  0  0  0  0  0  0999 V2000
   24.6900   26.1200   35.5300 N   0  0  0  0  0  0  0  0  0  0  0  0
   25.6600   25.6700   34.6600 C   0  0  0  0  0  0  0  0  0  0  0  0
   25.2400   25.0100   33.7200 O   0  0  0  0  0  0  0  0  0  0  0  0
   27.0300   26.2200   34.8800 C   0  0  0  0  0  0  0  0  0  0  0  0
   27.3500   26.7300   36.0700 N   0  0  0  0  0  0  0  0  0  0  0  0
   28.5700   27.1800   36.3300 N   0  0  0  0  0  0  0  0  0  0  0  0
   29.5300   27.1100   35.3900 C   0  0  0  0  0  0  0  0  0  0  0  0
   30.8300   27.5700   35.6500 C   0  0  0  0  0  0  0  0  0  0  0  0
   31.8500   27.5400   34.6900 C   0  0  0  0  0  0  0  0  0  0  0  0
   31.5100   27.1200   33.4000 C   0  0  0  0  0  0  0  0  0  0  0  0
   30.2200   26.6300   33.1100 C   0  0  0  0  0  0  0  0  0  0  0  0
   29.2400   26.6600   34.1000 C   0  0  0  0  0  0  0  0  0  0  0  0
   27.9300   26.2600   33.8100 C   0  0  0  0  0  0  0  0  0  0  0  0
   27.5200   25.7100   32.6100 N   0  0  0  0  0  0  0  0  0  0  0  0
   23.3511   25.5941   35.6078 C   0  0  0  0  0  0  0  0  0  0  0  0
   23.1460   24.3439   35.2961 N   0  0  0  0  0  0  0  0  0  0  0  0
   21.9448   23.5638   35.2723 C   0  0  0  0  0  0  0  0  0  0  0  0
   21.0693   23.5670   36.2680 C   0  0  0  0  0  0  0  0  0  0  0  0
   19.9590   22.6906   36.7679 C   0  0  0  0  0  0  0  0  0  0  0  0
   19.7448   23.4153   37.9353 O   0  0  0  0  0  0  0  0  0  0  0  0
   20.7296   24.3106   37.5243 C   0  0  0  0  0  0  0  0  0  0  0  0
   20.1029   25.6755   37.2392 C   0  0  0  0  0  0  0  0  0  0  0  0
   21.0247   26.6085   36.5283 C   0  0  0  0  0  0  0  0  0  0  0  0
   22.2722   26.5634   35.8960 C   0  0  0  0  0  0  0  0  0  0  0  0
   22.1947   28.0339   35.6204 C   0  0  0  0  0  0  0  0  0  0  0  0
   22.2005   28.3614   34.1118 C   0  0  0  0  0  0  0  0  0  0  0  0
   23.5201   28.0559   33.5165 N   0  0  0  0  0  0  0  0  0  0  0  0
   24.4719   29.1611   33.7221 C   0  0  0  0  0  0  0  0  0  0  0  0
   23.3885   27.7795   32.0777 C   0  0  0  0  0  0  0  0  0  0  0  0
   20.8996   28.0637   36.2270 C   0  0  0  0  0  0  0  0  0  0  0  0
   24.8816   26.9734   36.1029 H   0  0  0  0  0  0  0  0  0  0  0  0
   31.0673   27.9415   36.6393 H   0  0  0  0  0  0  0  0  0  0  0  0
   32.8486   27.8873   34.9214 H   0  0  0  0  0  0  0  0  0  0  0  0
   32.2655   27.1208   32.6250 H   0  0  0  0  0  0  0  0  0  0  0  0
   30.0108   26.2787   32.1078 H   0  0  0  0  0  0  0  0  0  0  0  0
   27.6927   26.2255   31.7188 H   0  0  0  0  0  0  0  0  0  0  0  0
   27.3411   24.6833   32.5412 H   0  0  0  0  0  0  0  0  0  0  0  0
   21.8877   22.7480   34.5647 H   0  0  0  0  0  0  0  0  0  0  0  0
   19.0693   22.7171   36.1003 H   0  0  0  0  0  0  0  0  0  0  0  0
   20.3104   21.6594   36.9912 H   0  0  0  0  0  0  0  0  0  0  0  0
   21.5775   24.3528   38.2444 H   0  0  0  0  0  0  0  0  0  0  0  0
   19.8135   26.1381   38.2061 H   0  0  0  0  0  0  0  0  0  0  0  0
   19.1822   25.5595   36.6267 H   0  0  0  0  0  0  0  0  0  0  0  0
   22.9465   28.6078   36.2064 H   0  0  0  0  0  0  0  0  0  0  0  0
   21.9323   29.4322   33.9630 H   0  0  0  0  0  0  0  0  0  0  0  0
   21.4028   27.7577   33.6174 H   0  0  0  0  0  0  0  0  0  0  0  0
   24.1236   30.0938   33.2242 H   0  0  0  0  0  0  0  0  0  0  0  0
   25.4680   28.8856   33.3144 H   0  0  0  0  0  0  0  0  0  0  0  0
   24.6134   29.3584   34.8042 H   0  0  0  0  0  0  0  0  0  0  0  0
   22.7546   26.8807   31.9196 H   0  0  0  0  0  0  0  0  0  0  0  0
   22.9378   28.6449   31.5420 H   0  0  0  0  0  0  0  0  0  0  0  0
   24.3835   27.5538   31.6357 H   0  0  0  0  0  0  0  0  0  0  0  0
   20.8641   28.6707   37.1589 H   0  0  0  0  0  0  0  0  0  0  0  0
   20.0491   28.2648   35.5370 H   0  0  0  0  0  0  0  0  0  0  0  0
  1  2  1  0
  2  3  2  0
  2  4  1  0
  4  5  2  0
  5  6  1  0
  6  7  2  0
  7  8  1  0
  8  9  2  0
  9 10  1  0
 10 11  2  0
 11 12  1  0
 12 13  2  0
 13 14  1  0
  1 15  1  0
 15 16  2  0
 16 17  1  0
 17 18  2  0
 18 19  1  0
 19 20  1  0
 20 21  1  0
 21 22  1  0
 22 23  1  0
 23 24  2  0
 24 25  1  0
 25 26  1  0
 26 27  1  0
 27 28  1  0
 27 29  1  0
 25 30  1  0
 13  4  1  0
 24 15  1  0
 12  7  1  0
 21 18  1  0
 30 23  1  0
  1 31  1  0
  8 32  1  0
  9 33  1  0
 10 34  1  0
 11 35  1  0
 14 36  1  0
 14 37  1  0
 17 38  1  0
 19 39  1  0
 19 40  1  0
 21 41  1  0
 22 42  1  0
 22 43  1  0
 25 44  1  0
 26 45  1  0
 26 46  1  0
 28 47  1  0
 28 48  1  0
 28 49  1  0
 29 50  1  0
 29 51  1  0
 29 52  1  0
 30 53  1  0
 30 54  1  0
M  END
$$$$
