confid_0
     RDKit          3D

 45 48  0  0  0  0  0  0  0  0999 V2000
   24.6900   26.1200   35.5300 N   0  0  0  0  0  0  0  0  0  0  0  0
   25.6600   25.6700   34.6600 C   0  0  0  0  0  0  0  0  0  0  0  0
   25.2400   25.0100   33.7200 O   0  0  0  0  0  0  0  0  0  0  0  0
   27.0300   26.2200   34.8800 C   0  0  0  0  0  0  0  0  0  0  0  0
   27.3500   26.7300   36.0700 N   0  0  0  0  0  0  0  0  0  0  0  0
   28.5700   27.1800   36.3300 N   0  0  0  0  0  0  0  0  0  0  0  0
   29.5300   27.1100   35.3900 C   0  0  0  0  0  0  0  0  0  0  0  0
   30.8300   27.5700   35.6500 C   0  0  0  0  0  0  0  0  0  0  0  0
   31.8500   27.5400   34.6900 C   0  0  0  0  0  0  0  0  0  0  0  0
   31.5100   27.1200   33.4000 C   0  0  0  0  0  0  0  0  0  0  0  0
   30.2200   26.6300   33.1100 C   0  0  0  0  0  0  0  0  0  0  0  0
   29.2400   26.6600   34.1000 C   0  0  0  0  0  0  0  0  0  0  0  0
   27.9300   26.2600   33.8100 C   0  0  0  0  0  0  0  0  0  0  0  0
   27.5200   25.7100   32.6100 N   0  0  0  0  0  0  0  0  0  0  0  0
   23.4960   25.3835   35.8565 C   0  0  0  0  0  0  0  0  0  0  0  0
   23.3488   24.0875   35.4623 N   0  0  0  0  0  0  0  0  0  0  0  0
   22.2442   23.3583   35.7690 C   0  0  0  0  0  0  0  0  0  0  0  0
   21.2139   23.9255   36.5293 C   0  0  0  0  0  0  0  0  0  0  0  0
   19.9546   23.1434   36.8147 C   0  0  0  0  0  0  0  0  0  0  0  0
   19.3262   23.5773   38.1440 C   0  0  0  0  0  0  0  0  0  0  0  0
   19.1518   25.0352   38.1802 N   0  0  0  0  0  0  0  0  0  0  0  0
   20.2374   25.8691   37.7324 C   0  0  0  0  0  0  0  0  0  0  0  0
   20.2465   27.1028   37.9965 O   0  0  0  0  0  0  0  0  0  0  0  0
   21.3323   25.2646   36.9445 C   0  0  0  0  0  0  0  0  0  0  0  0
   22.4837   25.9928   36.6105 C   0  0  0  0  0  0  0  0  0  0  0  0
   17.9513   25.6206   38.7881 C   0  0  0  0  0  0  0  0  0  0  0  0
   18.1630   25.8370   40.2822 C   0  0  0  0  0  0  0  0  0  0  0  0
   24.8253   27.0460   35.9976 H   0  0  0  0  0  0  0  0  0  0  0  0
   31.0673   27.9414   36.6394 H   0  0  0  0  0  0  0  0  0  0  0  0
   32.8486   27.8872   34.9214 H   0  0  0  0  0  0  0  0  0  0  0  0
   32.2655   27.1208   32.6249 H   0  0  0  0  0  0  0  0  0  0  0  0
   30.0114   26.2784   32.1078 H   0  0  0  0  0  0  0  0  0  0  0  0
   27.6979   26.2228   31.7183 H   0  0  0  0  0  0  0  0  0  0  0  0
   27.3407   24.6833   32.5418 H   0  0  0  0  0  0  0  0  0  0  0  0
   22.1695   22.3371   35.4180 H   0  0  0  0  0  0  0  0  0  0  0  0
   20.1761   22.0549   36.8614 H   0  0  0  0  0  0  0  0  0  0  0  0
   19.2299   23.3174   35.9905 H   0  0  0  0  0  0  0  0  0  0  0  0
   19.9928   23.2728   38.9801 H   0  0  0  0  0  0  0  0  0  0  0  0
   18.3536   23.0556   38.2753 H   0  0  0  0  0  0  0  0  0  0  0  0
   22.5955   27.0214   36.9309 H   0  0  0  0  0  0  0  0  0  0  0  0
   17.7070   26.5889   38.3000 H   0  0  0  0  0  0  0  0  0  0  0  0
   17.0767   24.9517   38.6368 H   0  0  0  0  0  0  0  0  0  0  0  0
   18.3779   24.8681   40.7809 H   0  0  0  0  0  0  0  0  0  0  0  0
   19.0117   26.5319   40.4544 H   0  0  0  0  0  0  0  0  0  0  0  0
   17.2459   26.2746   40.7296 H   0  0  0  0  0  0  0  0  0  0  0  0
  1  2  1  0
  2  3  2  0
  2  4  1  0
  4  5  2  0
  5  6  1  0
  6  7  2  0
  7  8  1  0
  8  9  2  0
  9 10  1  0
 10 11  2  0
 11 12  1  0
 12 13  2  0
 13 14  1  0
  1 15  1  0
 15 16  2  0
 16 17  1  0
 17 18  2  0
 18 19  1  0
 19 20  1  0
 20 21  1  0
 21 22  1  0
 22 23  2  0
 22 24  1  0
 24 25  2  0
 21 26  1  0
 26 27  1  0
 13  4  1  0
 25 15  1  0
 12  7  1  0
 24 18  1  0
  1 28  1  0
  8 29  1  0
  9 30  1  0
 10 31  1  0
 11 32  1  0
 14 33  1  0
 14 34  1  0
 17 35  1  0
 19 36  1  0
 19 37  1  0
 20 38  1  0
 20 39  1  0
 25 40  1  0
 26 41  1  0
 26 42  1  0
 27 43  1  0
 27 44  1  0
 27 45  1  0
M  END
$$$$
confid_1
     RDKit          3D

 45 48  0  0  0  0  0  0  0  0999 V2000
   24.6900   26.1200   35.5300 N   0  0  0  0  0  0  0  0  0  0  0  0
   25.6600   25.6700   34.6600 C   0  0  0  0  0  0  0  0  0  0  0  0
   25.2400   25.0100   33.7200 O   0  0  0  0  0  0  0  0  0  0  0  0
   27.0300   26.2200   34.8800 C   0  0  0  0  0  0  0  0  0  0  0  0
   27.3500   26.7300   36.0700 N   0  0  0  0  0  0  0  0  0  0  0  0
   28.5700   27.1800   36.3300 N   0  0  0  0  0  0  0  0  0  0  0  0
   29.5300   27.1100   35.3900 C   0  0  0  0  0  0  0  0  0  0  0  0
   30.8300   27.5700   35.6500 C   0  0  0  0  0  0  0  0  0  0  0  0
   31.8500   27.5400   34.6900 C   0  0  0  0  0  0  0  0  0  0  0  0
   31.5100   27.1200   33.4000 C   0  0  0  0  0  0  0  0  0  0  0  0
   30.2200   26.6300   33.1100 C   0  0  0  0  0  0  0  0  0  0  0  0
   29.2400   26.6600   34.1000 C   0  0  0  0  0  0  0  0  0  0  0  0
   27.9300   26.2600   33.8100 C   0  0  0  0  0  0  0  0  0  0  0  0
   27.5200   25.7100   32.6100 N   0  0  0  0  0  0  0  0  0  0  0  0
   23.4954   25.3841   35.8557 C   0  0  0  0  0  0  0  0  0  0  0  0
   23.3478   24.0882   35.4612 N   0  0  0  0  0  0  0  0  0  0  0  0
   22.2425   23.3597   35.7670 C   0  0  0  0  0  0  0  0  0  0  0  0
   21.2120   23.9275   36.5266 C   0  0  0  0  0  0  0  0  0  0  0  0
   19.9513   23.1471   36.8098 C   0  0  0  0  0  0  0  0  0  0  0  0
   19.3222   23.5789   38.1395 C   0  0  0  0  0  0  0  0  0  0  0  0
   19.1507   25.0372   38.1788 N   0  0  0  0  0  0  0  0  0  0  0  0
   20.2355   25.8711   37.7286 C   0  0  0  0  0  0  0  0  0  0  0  0
   20.2438   27.1050   37.9914 O   0  0  0  0  0  0  0  0  0  0  0  0
   21.3309   25.2662   36.9422 C   0  0  0  0  0  0  0  0  0  0  0  0
   22.4828   25.9939   36.6090 C   0  0  0  0  0  0  0  0  0  0  0  0
   17.9198   25.6273   38.7190 C   0  0  0  0  0  0  0  0  0  0  0  0
   17.0615   26.1906   37.5920 C   0  0  0  0  0  0  0  0  0  0  0  0
   24.8255   27.0458   35.9978 H   0  0  0  0  0  0  0  0  0  0  0  0
   31.0672   27.9417   36.6393 H   0  0  0  0  0  0  0  0  0  0  0  0
   32.8482   27.8886   34.9211 H   0  0  0  0  0  0  0  0  0  0  0  0
   32.2640   27.1263   32.6235 H   0  0  0  0  0  0  0  0  0  0  0  0
   30.0101   26.3033   32.1004 H   0  0  0  0  0  0  0  0  0  0  0  0
   26.6937   26.1024   32.1057 H   0  0  0  0  0  0  0  0  0  0  0  0
   28.1316   25.0435   32.0892 H   0  0  0  0  0  0  0  0  0  0  0  0
   22.1672   22.3387   35.4157 H   0  0  0  0  0  0  0  0  0  0  0  0
   20.1706   22.0580   36.8538 H   0  0  0  0  0  0  0  0  0  0  0  0
   19.2275   23.3247   35.9855 H   0  0  0  0  0  0  0  0  0  0  0  0
   19.9856   23.2701   38.9765 H   0  0  0  0  0  0  0  0  0  0  0  0
   18.3470   23.0595   38.2619 H   0  0  0  0  0  0  0  0  0  0  0  0
   22.5948   27.0225   36.9294 H   0  0  0  0  0  0  0  0  0  0  0  0
   18.1696   26.4322   39.4435 H   0  0  0  0  0  0  0  0  0  0  0  0
   17.3286   24.8643   39.2706 H   0  0  0  0  0  0  0  0  0  0  0  0
   16.8073   25.3855   36.8703 H   0  0  0  0  0  0  0  0  0  0  0  0
   17.6038   26.9999   37.0594 H   0  0  0  0  0  0  0  0  0  0  0  0
   16.1216   26.6073   38.0111 H   0  0  0  0  0  0  0  0  0  0  0  0
  1  2  1  0
  2  3  2  0
  2  4  1  0
  4  5  2  0
  5  6  1  0
  6  7  2  0
  7  8  1  0
  8  9  2  0
  9 10  1  0
 10 11  2  0
 11 12  1  0
 12 13  2  0
 13 14  1  0
  1 15  1  0
 15 16  2  0
 16 17  1  0
 17 18  2  0
 18 19  1  0
 19 20  1  0
 20 21  1  0
 21 22  1  0
 22 23  2  0
 22 24  1  0
 24 25  2  0
 21 26  1  0
 26 27  1  0
 13  4  1  0
 25 15  1  0
 12  7  1  0
 24 18  1  0
  1 28  1  0
  8 29  1  0
  9 30  1  0
 10 31  1  0
 11 32  1  0
 14 33  1  0
 14 34  1  0
 17 35  1  0
 19 36  1  0
 19 37  1  0
 20 38  1  0
 20 39  1  0
 25 40  1  0
 26 41  1  0
 26 42  1  0
 27 43  1  0
 27 44  1  0
 27 45  1  0
M  END
$$$$
confid_2
     RDKit          3D

 45 48  0  0  0  0  0  0  0  0999 V2000
   24.6900   26.1200   35.5300 N   0  0  0  0  0  0  0  0  0  0  0  0
   25.6600   25.6700   34.6600 C   0  0  0  0  0  0  0  0  0  0  0  0
   25.2400   25.0100   33.7200 O   0  0  0  0  0  0  0  0  0  0  0  0
   27.0300   26.2200   34.8800 C   0  0  0  0  0  0  0  0  0  0  0  0
   27.3500   26.7300   36.0700 N   0  0  0  0  0  0  0  0  0  0  0  0
   28.5700   27.1800   36.3300 N   0  0  0  0  0  0  0  0  0  0  0  0
   29.5300   27.1100   35.3900 C   0  0  0  0  0  0  0  0  0  0  0  0
   30.8300   27.5700   35.6500 C   0  0  0  0  0  0  0  0  0  0  0  0
   31.8500   27.5400   34.6900 C   0  0  0  0  0  0  0  0  0  0  0  0
   31.5100   27.1200   33.4000 C   0  0  0  0  0  0  0  0  0  0  0  0
   30.2200   26.6300   33.1100 C   0  0  0  0  0  0  0  0  0  0  0  0
   29.2400   26.6600   34.1000 C   0  0  0  0  0  0  0  0  0  0  0  0
   27.9300   26.2600   33.8100 C   0  0  0  0  0  0  0  0  0  0  0  0
   27.5200   25.7100   32.6100 N   0  0  0  0  0  0  0  0  0  0  0  0
   23.3291   26.4140   35.1650 C   0  0  0  0  0  0  0  0  0  0  0  0
   22.3573   26.3155   36.1127 N   0  0  0  0  0  0  0  0  0  0  0  0
   21.0544   26.5940   35.8477 C   0  0  0  0  0  0  0  0  0  0  0  0
   20.6659   26.9939   34.5632 C   0  0  0  0  0  0  0  0  0  0  0  0
   19.2309   27.3655   34.2801 C   0  0  0  0  0  0  0  0  0  0  0  0
   18.8686   27.0898   32.8165 C   0  0  0  0  0  0  0  0  0  0  0  0
   19.8431   27.7183   31.9146 N   0  0  0  0  0  0  0  0  0  0  0  0
   21.2449   27.5956   32.2224 C   0  0  0  0  0  0  0  0  0  0  0  0
   22.1160   27.8769   31.3539 O   0  0  0  0  0  0  0  0  0  0  0  0
   21.6505   27.1425   33.5697 C   0  0  0  0  0  0  0  0  0  0  0  0
   22.9896   26.8563   33.8743 C   0  0  0  0  0  0  0  0  0  0  0  0
   19.3963   28.3089   30.6475 C   0  0  0  0  0  0  0  0  0  0  0  0
   19.3667   27.2524   29.5487 C   0  0  0  0  0  0  0  0  0  0  0  0
   24.9227   26.1694   36.5474 H   0  0  0  0  0  0  0  0  0  0  0  0
   31.0673   27.9418   36.6394 H   0  0  0  0  0  0  0  0  0  0  0  0
   32.8484   27.8883   34.9211 H   0  0  0  0  0  0  0  0  0  0  0  0
   32.2639   27.1261   32.6235 H   0  0  0  0  0  0  0  0  0  0  0  0
   30.0100   26.3036   32.1003 H   0  0  0  0  0  0  0  0  0  0  0  0
   26.6926   26.1016   32.1068 H   0  0  0  0  0  0  0  0  0  0  0  0
   28.1323   25.0450   32.0882 H   0  0  0  0  0  0  0  0  0  0  0  0
   20.3217   26.5039   36.6394 H   0  0  0  0  0  0  0  0  0  0  0  0
   18.5432   26.7863   34.9334 H   0  0  0  0  0  0  0  0  0  0  0  0
   19.0897   28.4473   34.4942 H   0  0  0  0  0  0  0  0  0  0  0  0
   17.8427   27.4688   32.6188 H   0  0  0  0  0  0  0  0  0  0  0  0
   18.8679   25.9927   32.6381 H   0  0  0  0  0  0  0  0  0  0  0  0
   23.7569   26.9917   33.1231 H   0  0  0  0  0  0  0  0  0  0  0  0
   20.0728   29.1395   30.3496 H   0  0  0  0  0  0  0  0  0  0  0  0
   18.3797   28.7436   30.7613 H   0  0  0  0  0  0  0  0  0  0  0  0
   18.6674   26.4353   29.8249 H   0  0  0  0  0  0  0  0  0  0  0  0
   19.0242   27.7116   28.5981 H   0  0  0  0  0  0  0  0  0  0  0  0
   20.3809   26.8280   29.3959 H   0  0  0  0  0  0  0  0  0  0  0  0
  1  2  1  0
  2  3  2  0
  2  4  1  0
  4  5  2  0
  5  6  1  0
  6  7  2  0
  7  8  1  0
  8  9  2  0
  9 10  1  0
 10 11  2  0
 11 12  1  0
 12 13  2  0
 13 14  1  0
  1 15  1  0
 15 16  2  0
 16 17  1  0
 17 18  2  0
 18 19  1  0
 19 20  1  0
 20 21  1  0
 21 22  1  0
 22 23  2  0
 22 24  1  0
 24 25  2  0
 21 26  1  0
 26 27  1  0
 13  4  1  0
 25 15  1  0
 12  7  1  0
 24 18  1  0
  1 28  1  0
  8 29  1  0
  9 30  1  0
 10 31  1  0
 11 32  1  0
 14 33  1  0
 14 34  1  0
 17 35  1  0
 19 36  1  0
 19 37  1  0
 20 38  1  0
 20 39  1  0
 25 40  1  0
 26 41  1  0
 26 42  1  0
 27 43  1  0
 27 44  1  0
 27 45  1  0
M  END
$$$$
confid_3
     RDKit          3D

 45 48  0  0  0  0  0  0  0  0999 V2000
   24.6900   26.1200   35.5300 N   0  0  0  0  0  0  0  0  0  0  0  0
   25.6600   25.6700   34.6600 C   0  0  0  0  0  0  0  0  0  0  0  0
   25.2400   25.0100   33.7200 O   0  0  0  0  0  0  0  0  0  0  0  0
   27.0300   26.2200   34.8800 C   0  0  0  0  0  0  0  0  0  0  0  0
   27.3500   26.7300   36.0700 N   0  0  0  0  0  0  0  0  0  0  0  0
   28.5700   27.1800   36.3300 N   0  0  0  0  0  0  0  0  0  0  0  0
   29.5300   27.1100   35.3900 C   0  0  0  0  0  0  0  0  0  0  0  0
   30.8300   27.5700   35.6500 C   0  0  0  0  0  0  0  0  0  0  0  0
   31.8500   27.5400   34.6900 C   0  0  0  0  0  0  0  0  0  0  0  0
   31.5100   27.1200   33.4000 C   0  0  0  0  0  0  0  0  0  0  0  0
   30.2200   26.6300   33.1100 C   0  0  0  0  0  0  0  0  0  0  0  0
   29.2400   26.6600   34.1000 C   0  0  0  0  0  0  0  0  0  0  0  0
   27.9300   26.2600   33.8100 C   0  0  0  0  0  0  0  0  0  0  0  0
   27.5200   25.7100   32.6100 N   0  0  0  0  0  0  0  0  0  0  0  0
   23.5066   25.3822   35.8858 C   0  0  0  0  0  0  0  0  0  0  0  0
   22.4170   26.0622   36.3349 N   0  0  0  0  0  0  0  0  0  0  0  0
   21.2726   25.4334   36.7100 C   0  0  0  0  0  0  0  0  0  0  0  0
   21.1797   24.0379   36.6415 C   0  0  0  0  0  0  0  0  0  0  0  0
   19.9354   23.3311   37.1225 C   0  0  0  0  0  0  0  0  0  0  0  0
   19.7287   22.0089   36.3749 C   0  0  0  0  0  0  0  0  0  0  0  0
   20.9469   21.1903   36.4298 N   0  0  0  0  0  0  0  0  0  0  0  0
   22.2145   21.8261   36.1782 C   0  0  0  0  0  0  0  0  0  0  0  0
   23.2416   21.1322   35.9428 O   0  0  0  0  0  0  0  0  0  0  0  0
   22.3000   23.3015   36.2154 C   0  0  0  0  0  0  0  0  0  0  0  0
   23.4698   23.9775   35.8383 C   0  0  0  0  0  0  0  0  0  0  0  0
   20.8527   19.7361   36.6027 C   0  0  0  0  0  0  0  0  0  0  0  0
   20.7246   19.0465   35.2493 C   0  0  0  0  0  0  0  0  0  0  0  0
   24.7789   27.0859   35.9210 H   0  0  0  0  0  0  0  0  0  0  0  0
   31.0672   27.9417   36.6393 H   0  0  0  0  0  0  0  0  0  0  0  0
   32.8482   27.8886   34.9211 H   0  0  0  0  0  0  0  0  0  0  0  0
   32.2640   27.1263   32.6235 H   0  0  0  0  0  0  0  0  0  0  0  0
   30.0101   26.3033   32.1004 H   0  0  0  0  0  0  0  0  0  0  0  0
   26.6937   26.1023   32.1057 H   0  0  0  0  0  0  0  0  0  0  0  0
   28.1315   25.0434   32.0893 H   0  0  0  0  0  0  0  0  0  0  0  0
   20.4374   26.0221   37.0667 H   0  0  0  0  0  0  0  0  0  0  0  0
   19.0410   23.9733   36.9688 H   0  0  0  0  0  0  0  0  0  0  0  0
   20.0366   23.1273   38.2102 H   0  0  0  0  0  0  0  0  0  0  0  0
   18.8648   21.4693   36.8196 H   0  0  0  0  0  0  0  0  0  0  0  0
   19.4865   22.2242   35.3114 H   0  0  0  0  0  0  0  0  0  0  0  0
   24.3431   23.4175   35.5300 H   0  0  0  0  0  0  0  0  0  0  0  0
   21.7508   19.3538   37.1347 H   0  0  0  0  0  0  0  0  0  0  0  0
   19.9713   19.4780   37.2286 H   0  0  0  0  0  0  0  0  0  0  0  0
   21.6139   19.2631   34.6207 H   0  0  0  0  0  0  0  0  0  0  0  0
   20.6488   17.9485   35.3954 H   0  0  0  0  0  0  0  0  0  0  0  0
   19.8123   19.4023   34.7253 H   0  0  0  0  0  0  0  0  0  0  0  0
  1  2  1  0
  2  3  2  0
  2  4  1  0
  4  5  2  0
  5  6  1  0
  6  7  2  0
  7  8  1  0
  8  9  2  0
  9 10  1  0
 10 11  2  0
 11 12  1  0
 12 13  2  0
 13 14  1  0
  1 15  1  0
 15 16  2  0
 16 17  1  0
 17 18  2  0
 18 19  1  0
 19 20  1  0
 20 21  1  0
 21 22  1  0
 22 23  2  0
 22 24  1  0
 24 25  2  0
 21 26  1  0
 26 27  1  0
 13  4  1  0
 25 15  1  0
 12  7  1  0
 24 18  1  0
  1 28  1  0
  8 29  1  0
  9 30  1  0
 10 31  1  0
 11 32  1  0
 14 33  1  0
 14 34  1  0
 17 35  1  0
 19 36  1  0
 19 37  1  0
 20 38  1  0
 20 39  1  0
 25 40  1  0
 26 41  1  0
 26 42  1  0
 27 43  1  0
 27 44  1  0
 27 45  1  0
M  END
$$$$
confid_4
     RDKit          3D

 45 48  0  0  0  0  0  0  0  0999 V2000
   24.6900   26.1200   35.5300 N   0  0  0  0  0  0  0  0  0  0  0  0
   25.6600   25.6700   34.6600 C   0  0  0  0  0  0  0  0  0  0  0  0
   25.2400   25.0100   33.7200 O   0  0  0  0  0  0  0  0  0  0  0  0
   27.0300   26.2200   34.8800 C   0  0  0  0  0  0  0  0  0  0  0  0
   27.3500   26.7300   36.0700 N   0  0  0  0  0  0  0  0  0  0  0  0
   28.5700   27.1800   36.3300 N   0  0  0  0  0  0  0  0  0  0  0  0
   29.5300   27.1100   35.3900 C   0  0  0  0  0  0  0  0  0  0  0  0
   30.8300   27.5700   35.6500 C   0  0  0  0  0  0  0  0  0  0  0  0
   31.8500   27.5400   34.6900 C   0  0  0  0  0  0  0  0  0  0  0  0
   31.5100   27.1200   33.4000 C   0  0  0  0  0  0  0  0  0  0  0  0
   30.2200   26.6300   33.1100 C   0  0  0  0  0  0  0  0  0  0  0  0
   29.2400   26.6600   34.1000 C   0  0  0  0  0  0  0  0  0  0  0  0
   27.9300   26.2600   33.8100 C   0  0  0  0  0  0  0  0  0  0  0  0
   27.5200   25.7100   32.6100 N   0  0  0  0  0  0  0  0  0  0  0  0
   23.3412   26.4550   35.1549 C   0  0  0  0  0  0  0  0  0  0  0  0
   22.3599   26.3850   36.0950 N   0  0  0  0  0  0  0  0  0  0  0  0
   21.0693   26.7113   35.8228 C   0  0  0  0  0  0  0  0  0  0  0  0
   20.7047   27.1357   34.5391 C   0  0  0  0  0  0  0  0  0  0  0  0
   19.2879   27.5693   34.2515 C   0  0  0  0  0  0  0  0  0  0  0  0
   18.9224   27.3243   32.7829 C   0  0  0  0  0  0  0  0  0  0  0  0
   19.9283   27.9214   31.8945 N   0  0  0  0  0  0  0  0  0  0  0  0
   21.3218   27.7342   32.2075 C   0  0  0  0  0  0  0  0  0  0  0  0
   22.2087   27.9879   31.3467 O   0  0  0  0  0  0  0  0  0  0  0  0
   21.7008   27.2534   33.5530 C   0  0  0  0  0  0  0  0  0  0  0  0
   23.0262   26.9158   33.8645 C   0  0  0  0  0  0  0  0  0  0  0  0
   19.5176   28.6308   30.6764 C   0  0  0  0  0  0  0  0  0  0  0  0
   19.7204   30.1329   30.8415 C   0  0  0  0  0  0  0  0  0  0  0  0
   24.9200   26.1673   36.5490 H   0  0  0  0  0  0  0  0  0  0  0  0
   31.0673   27.9415   36.6393 H   0  0  0  0  0  0  0  0  0  0  0  0
   32.8486   27.8873   34.9214 H   0  0  0  0  0  0  0  0  0  0  0  0
   32.2655   27.1209   32.6249 H   0  0  0  0  0  0  0  0  0  0  0  0
   30.0113   26.2786   32.1078 H   0  0  0  0  0  0  0  0  0  0  0  0
   27.6968   26.2233   31.7184 H   0  0  0  0  0  0  0  0  0  0  0  0
   27.3405   24.6833   32.5416 H   0  0  0  0  0  0  0  0  0  0  0  0
   20.3293   26.6456   36.6100 H   0  0  0  0  0  0  0  0  0  0  0  0
   18.5738   27.0124   34.8969 H   0  0  0  0  0  0  0  0  0  0  0  0
   19.1921   28.6530   34.4780 H   0  0  0  0  0  0  0  0  0  0  0  0
   17.9147   27.7511   32.5870 H   0  0  0  0  0  0  0  0  0  0  0  0
   18.8767   26.2298   32.5938 H   0  0  0  0  0  0  0  0  0  0  0  0
   23.8028   27.0286   33.1190 H   0  0  0  0  0  0  0  0  0  0  0  0
   20.1031   28.2632   29.8062 H   0  0  0  0  0  0  0  0  0  0  0  0
   18.4457   28.4383   30.4527 H   0  0  0  0  0  0  0  0  0  0  0  0
   19.3849   30.6582   29.9227 H   0  0  0  0  0  0  0  0  0  0  0  0
   20.7928   30.3623   31.0116 H   0  0  0  0  0  0  0  0  0  0  0  0
   19.1271   30.5035   31.7044 H   0  0  0  0  0  0  0  0  0  0  0  0
  1  2  1  0
  2  3  2  0
  2  4  1  0
  4  5  2  0
  5  6  1  0
  6  7  2  0
  7  8  1  0
  8  9  2  0
  9 10  1  0
 10 11  2  0
 11 12  1  0
 12 13  2  0
 13 14  1  0
  1 15  1  0
 15 16  2  0
 16 17  1  0
 17 18  2  0
 18 19  1  0
 19 20  1  0
 20 21  1  0
 21 22  1  0
 22 23  2  0
 22 24  1  0
 24 25  2  0
 21 26  1  0
 26 27  1  0
 13  4  1  0
 25 15  1  0
 12  7  1  0
 24 18  1  0
  1 28  1  0
  8 29  1  0
  9 30  1  0
 10 31  1  0
 11 32  1  0
 14 33  1  0
 14 34  1  0
 17 35  1  0
 19 36  1  0
 19 37  1  0
 20 38  1  0
 20 39  1  0
 25 40  1  0
 26 41  1  0
 26 42  1  0
 27 43  1  0
 27 44  1  0
 27 45  1  0
M  END
$$$$
confid_5
     RDKit          3D

 45 48  0  0  0  0  0  0  0  0999 V2000
   24.6900   26.1200   35.5300 N   0  0  0  0  0  0  0  0  0  0  0  0
   25.6600   25.6700   34.6600 C   0  0  0  0  0  0  0  0  0  0  0  0
   25.2400   25.0100   33.7200 O   0  0  0  0  0  0  0  0  0  0  0  0
   27.0300   26.2200   34.8800 C   0  0  0  0  0  0  0  0  0  0  0  0
   27.3500   26.7300   36.0700 N   0  0  0  0  0  0  0  0  0  0  0  0
   28.5700   27.1800   36.3300 N   0  0  0  0  0  0  0  0  0  0  0  0
   29.5300   27.1100   35.3900 C   0  0  0  0  0  0  0  0  0  0  0  0
   30.8300   27.5700   35.6500 C   0  0  0  0  0  0  0  0  0  0  0  0
   31.8500   27.5400   34.6900 C   0  0  0  0  0  0  0  0  0  0  0  0
   31.5100   27.1200   33.4000 C   0  0  0  0  0  0  0  0  0  0  0  0
   30.2200   26.6300   33.1100 C   0  0  0  0  0  0  0  0  0  0  0  0
   29.2400   26.6600   34.1000 C   0  0  0  0  0  0  0  0  0  0  0  0
   27.9300   26.2600   33.8100 C   0  0  0  0  0  0  0  0  0  0  0  0
   27.5200   25.7100   32.6100 N   0  0  0  0  0  0  0  0  0  0  0  0
   23.5041   25.3843   35.8819 C   0  0  0  0  0  0  0  0  0  0  0  0
   22.4145   26.0663   36.3283 N   0  0  0  0  0  0  0  0  0  0  0  0
   21.2677   25.4394   36.6994 C   0  0  0  0  0  0  0  0  0  0  0  0
   21.1720   24.0443   36.6286 C   0  0  0  0  0  0  0  0  0  0  0  0
   19.9255   23.3391   37.1057 C   0  0  0  0  0  0  0  0  0  0  0  0
   19.7159   22.0198   36.3534 C   0  0  0  0  0  0  0  0  0  0  0  0
   20.9318   21.1976   36.4077 N   0  0  0  0  0  0  0  0  0  0  0  0
   22.2027   21.8310   36.1660 C   0  0  0  0  0  0  0  0  0  0  0  0
   23.2293   21.1347   35.9358 O   0  0  0  0  0  0  0  0  0  0  0  0
   22.2918   23.3060   36.2052 C   0  0  0  0  0  0  0  0  0  0  0  0
   23.4645   23.9798   35.8333 C   0  0  0  0  0  0  0  0  0  0  0  0
   20.8428   19.7523   36.6487 C   0  0  0  0  0  0  0  0  0  0  0  0
   21.3154   19.4187   38.0592 C   0  0  0  0  0  0  0  0  0  0  0  0
   24.7800   27.0850   35.9229 H   0  0  0  0  0  0  0  0  0  0  0  0
   31.0674   27.9414   36.6394 H   0  0  0  0  0  0  0  0  0  0  0  0
   32.8486   27.8872   34.9214 H   0  0  0  0  0  0  0  0  0  0  0  0
   32.2655   27.1208   32.6249 H   0  0  0  0  0  0  0  0  0  0  0  0
   30.0114   26.2784   32.1078 H   0  0  0  0  0  0  0  0  0  0  0  0
   27.6980   26.2227   31.7182 H   0  0  0  0  0  0  0  0  0  0  0  0
   27.3404   24.6833   32.5419 H   0  0  0  0  0  0  0  0  0  0  0  0
   20.4327   26.0295   37.0544 H   0  0  0  0  0  0  0  0  0  0  0  0
   19.0329   23.9843   36.9540 H   0  0  0  0  0  0  0  0  0  0  0  0
   20.0256   23.1306   38.1927 H   0  0  0  0  0  0  0  0  0  0  0  0
   19.4742   22.2383   35.2905 H   0  0  0  0  0  0  0  0  0  0  0  0
   18.8513   21.4832   36.8011 H   0  0  0  0  0  0  0  0  0  0  0  0
   24.3377   23.4181   35.5274 H   0  0  0  0  0  0  0  0  0  0  0  0
   19.7955   19.3988   36.5304 H   0  0  0  0  0  0  0  0  0  0  0  0
   21.4582   19.2035   35.9035 H   0  0  0  0  0  0  0  0  0  0  0  0
   20.6985   19.9638   38.8049 H   0  0  0  0  0  0  0  0  0  0  0  0
   22.3807   19.7040   38.1886 H   0  0  0  0  0  0  0  0  0  0  0  0
   21.2146   18.3276   38.2385 H   0  0  0  0  0  0  0  0  0  0  0  0
  1  2  1  0
  2  3  2  0
  2  4  1  0
  4  5  2  0
  5  6  1  0
  6  7  2  0
  7  8  1  0
  8  9  2  0
  9 10  1  0
 10 11  2  0
 11 12  1  0
 12 13  2  0
 13 14  1  0
  1 15  1  0
 15 16  2  0
 16 17  1  0
 17 18  2  0
 18 19  1  0
 19 20  1  0
 20 21  1  0
 21 22  1  0
 22 23  2  0
 22 24  1  0
 24 25  2  0
 21 26  1  0
 26 27  1  0
 13  4  1  0
 25 15  1  0
 12  7  1  0
 24 18  1  0
  1 28  1  0
  8 29  1  0
  9 30  1  0
 10 31  1  0
 11 32  1  0
 14 33  1  0
 14 34  1  0
 17 35  1  0
 19 36  1  0
 19 37  1  0
 20 38  1  0
 20 39  1  0
 25 40  1  0
 26 41  1  0
 26 42  1  0
 27 43  1  0
 27 44  1  0
 27 45  1  0
M  END
$$$$
confid_6
     RDKit          3D

 45 48  0  0  0  0  0  0  0  0999 V2000
   24.6900   26.1200   35.5300 N   0  0  0  0  0  0  0  0  0  0  0  0
   25.6600   25.6700   34.6600 C   0  0  0  0  0  0  0  0  0  0  0  0
   25.2400   25.0100   33.7200 O   0  0  0  0  0  0  0  0  0  0  0  0
   27.0300   26.2200   34.8800 C   0  0  0  0  0  0  0  0  0  0  0  0
   27.3500   26.7300   36.0700 N   0  0  0  0  0  0  0  0  0  0  0  0
   28.5700   27.1800   36.3300 N   0  0  0  0  0  0  0  0  0  0  0  0
   29.5300   27.1100   35.3900 C   0  0  0  0  0  0  0  0  0  0  0  0
   30.8300   27.5700   35.6500 C   0  0  0  0  0  0  0  0  0  0  0  0
   31.8500   27.5400   34.6900 C   0  0  0  0  0  0  0  0  0  0  0  0
   31.5100   27.1200   33.4000 C   0  0  0  0  0  0  0  0  0  0  0  0
   30.2200   26.6300   33.1100 C   0  0  0  0  0  0  0  0  0  0  0  0
   29.2400   26.6600   34.1000 C   0  0  0  0  0  0  0  0  0  0  0  0
   27.9300   26.2600   33.8100 C   0  0  0  0  0  0  0  0  0  0  0  0
   27.5200   25.7100   32.6100 N   0  0  0  0  0  0  0  0  0  0  0  0
   23.4956   25.3839   35.8559 C   0  0  0  0  0  0  0  0  0  0  0  0
   23.3483   24.0879   35.4614 N   0  0  0  0  0  0  0  0  0  0  0  0
   22.2422   23.3598   35.7653 C   0  0  0  0  0  0  0  0  0  0  0  0
   21.1997   23.9356   36.5022 C   0  0  0  0  0  0  0  0  0  0  0  0
   20.0008   23.1110   36.9034 C   0  0  0  0  0  0  0  0  0  0  0  0
   18.7496   23.9865   37.0396 C   0  0  0  0  0  0  0  0  0  0  0  0
   19.0159   25.1318   37.9198 N   0  0  0  0  0  0  0  0  0  0  0  0
   20.2445   25.8634   37.7459 C   0  0  0  0  0  0  0  0  0  0  0  0
   20.3944   26.9958   38.2816 O   0  0  0  0  0  0  0  0  0  0  0  0
   21.3327   25.2641   36.9454 C   0  0  0  0  0  0  0  0  0  0  0  0
   22.4874   25.9900   36.6179 C   0  0  0  0  0  0  0  0  0  0  0  0
   18.0257   25.5474   38.9206 C   0  0  0  0  0  0  0  0  0  0  0  0
   18.4884   25.1564   40.3196 C   0  0  0  0  0  0  0  0  0  0  0  0
   24.8252   27.0461   35.9972 H   0  0  0  0  0  0  0  0  0  0  0  0
   31.0672   27.9417   36.6393 H   0  0  0  0  0  0  0  0  0  0  0  0
   32.8482   27.8886   34.9211 H   0  0  0  0  0  0  0  0  0  0  0  0
   32.2640   27.1263   32.6235 H   0  0  0  0  0  0  0  0  0  0  0  0
   30.0101   26.3033   32.1004 H   0  0  0  0  0  0  0  0  0  0  0  0
   28.1316   25.0435   32.0892 H   0  0  0  0  0  0  0  0  0  0  0  0
   26.6937   26.1024   32.1057 H   0  0  0  0  0  0  0  0  0  0  0  0
   22.1789   22.3305   35.4366 H   0  0  0  0  0  0  0  0  0  0  0  0
   19.8040   22.3194   36.1479 H   0  0  0  0  0  0  0  0  0  0  0  0
   20.2137   22.6196   37.8771 H   0  0  0  0  0  0  0  0  0  0  0  0
   17.9166   23.3654   37.4347 H   0  0  0  0  0  0  0  0  0  0  0  0
   18.4540   24.3624   36.0361 H   0  0  0  0  0  0  0  0  0  0  0  0
   22.6032   27.0158   36.9462 H   0  0  0  0  0  0  0  0  0  0  0  0
   17.0429   25.0671   38.7224 H   0  0  0  0  0  0  0  0  0  0  0  0
   17.8679   26.6462   38.8670 H   0  0  0  0  0  0  0  0  0  0  0  0
   19.4421   25.6674   40.5693 H   0  0  0  0  0  0  0  0  0  0  0  0
   18.6381   24.0572   40.3761 H   0  0  0  0  0  0  0  0  0  0  0  0
   17.7196   25.4531   41.0638 H   0  0  0  0  0  0  0  0  0  0  0  0
  1  2  1  0
  2  3  2  0
  2  4  1  0
  4  5  2  0
  5  6  1  0
  6  7  2  0
  7  8  1  0
  8  9  2  0
  9 10  1  0
 10 11  2  0
 11 12  1  0
 12 13  2  0
 13 14  1  0
  1 15  1  0
 15 16  2  0
 16 17  1  0
 17 18  2  0
 18 19  1  0
 19 20  1  0
 20 21  1  0
 21 22  1  0
 22 23  2  0
 22 24  1  0
 24 25  2  0
 21 26  1  0
 26 27  1  0
 13  4  1  0
 25 15  1  0
 12  7  1  0
 24 18  1  0
  1 28  1  0
  8 29  1  0
  9 30  1  0
 10 31  1  0
 11 32  1  0
 14 33  1  0
 14 34  1  0
 17 35  1  0
 19 36  1  0
 19 37  1  0
 20 38  1  0
 20 39  1  0
 25 40  1  0
 26 41  1  0
 26 42  1  0
 27 43  1  0
 27 44  1  0
 27 45  1  0
M  END
$$$$
