confid_0
     RDKit          3D

 46 49  0  0  0  0  0  0  0  0999 V2000
   24.6900   26.1200   35.5300 N   0  0  0  0  0  0  0  0  0  0  0  0
   25.6600   25.6700   34.6600 C   0  0  0  0  0  0  0  0  0  0  0  0
   25.2400   25.0100   33.7200 O   0  0  0  0  0  0  0  0  0  0  0  0
   27.0300   26.2200   34.8800 C   0  0  0  0  0  0  0  0  0  0  0  0
   27.3500   26.7300   36.0700 N   0  0  0  0  0  0  0  0  0  0  0  0
   28.5700   27.1800   36.3300 N   0  0  0  0  0  0  0  0  0  0  0  0
   29.5300   27.1100   35.3900 C   0  0  0  0  0  0  0  0  0  0  0  0
   30.8300   27.5700   35.6500 C   0  0  0  0  0  0  0  0  0  0  0  0
   31.8500   27.5400   34.6900 C   0  0  0  0  0  0  0  0  0  0  0  0
   31.5100   27.1200   33.4000 C   0  0  0  0  0  0  0  0  0  0  0  0
   30.2200   26.6300   33.1100 C   0  0  0  0  0  0  0  0  0  0  0  0
   29.2400   26.6600   34.1000 C   0  0  0  0  0  0  0  0  0  0  0  0
   27.9300   26.2600   33.8100 C   0  0  0  0  0  0  0  0  0  0  0  0
   27.5200   25.7100   32.6100 N   0  0  0  0  0  0  0  0  0  0  0  0
   31.1404   28.0848   36.9558 N   0  0  0  0  0  0  0  0  0  0  0  0
   30.6097   29.3459   37.4778 C   0  0  0  0  0  0  0  0  0  0  0  0
   31.4795   29.7008   38.7079 C   0  0  0  0  0  0  0  0  0  0  0  0
   32.4717   28.5901   38.7649 C   0  0  0  0  0  0  0  0  0  0  0  0
   33.5041   28.4059   39.6875 C   0  0  0  0  0  0  0  0  0  0  0  0
   33.6902   29.3536   40.7046 O   0  0  0  0  0  0  0  0  0  0  0  0
   34.7055   29.2720   41.6989 C   0  0  0  0  0  0  0  0  0  0  0  0
   34.3191   27.2592   39.5488 C   0  0  0  0  0  0  0  0  0  0  0  0
   34.0878   26.3298   38.5140 C   0  0  0  0  0  0  0  0  0  0  0  0
   34.9249   25.2076   38.4292 O   0  0  0  0  0  0  0  0  0  0  0  0
   34.8101   24.1938   37.4360 C   0  0  0  0  0  0  0  0  0  0  0  0
   33.0306   26.5516   37.6035 C   0  0  0  0  0  0  0  0  0  0  0  0
   32.2487   27.6995   37.7531 C   0  0  0  0  0  0  0  0  0  0  0  0
   23.6981   25.8077   35.4228 H   0  0  0  0  0  0  0  0  0  0  0  0
   24.8908   26.7905   36.3050 H   0  0  0  0  0  0  0  0  0  0  0  0
   32.8485   27.8964   34.9099 H   0  0  0  0  0  0  0  0  0  0  0  0
   32.2648   27.1231   32.6244 H   0  0  0  0  0  0  0  0  0  0  0  0
   30.0113   26.2789   32.1077 H   0  0  0  0  0  0  0  0  0  0  0  0
   27.6977   26.2229   31.7183 H   0  0  0  0  0  0  0  0  0  0  0  0
   27.3415   24.6831   32.5416 H   0  0  0  0  0  0  0  0  0  0  0  0
   29.5472   29.2218   37.7758 H   0  0  0  0  0  0  0  0  0  0  0  0
   30.6923   30.1410   36.7051 H   0  0  0  0  0  0  0  0  0  0  0  0
   31.9969   30.6735   38.5638 H   0  0  0  0  0  0  0  0  0  0  0  0
   30.8685   29.7183   39.6359 H   0  0  0  0  0  0  0  0  0  0  0  0
   34.5775   28.3470   42.3000 H   0  0  0  0  0  0  0  0  0  0  0  0
   35.7084   29.2823   41.2221 H   0  0  0  0  0  0  0  0  0  0  0  0
   34.6236   30.1486   42.3736 H   0  0  0  0  0  0  0  0  0  0  0  0
   35.1317   27.0748   40.2384 H   0  0  0  0  0  0  0  0  0  0  0  0
   35.5991   23.4321   37.6023 H   0  0  0  0  0  0  0  0  0  0  0  0
   33.8181   23.6998   37.5076 H   0  0  0  0  0  0  0  0  0  0  0  0
   34.9464   24.6326   36.4250 H   0  0  0  0  0  0  0  0  0  0  0  0
   32.8157   25.8529   36.8072 H   0  0  0  0  0  0  0  0  0  0  0  0
  1  2  1  0
  2  3  2  0
  2  4  1  0
  4  5  2  0
  5  6  1  0
  6  7  2  0
  7  8  1  0
  8  9  2  0
  9 10  1  0
 10 11  2  0
 11 12  1  0
 12 13  2  0
 13 14  1  0
  8 15  1  0
 15 16  1  0
 16 17  1  0
 17 18  1  0
 18 19  2  0
 19 20  1  0
 20 21  1  0
 19 22  1  0
 22 23  2  0
 23 24  1  0
 24 25  1  0
 23 26  1  0
 26 27  2  0
 13  4  1  0
 27 15  1  0
 12  7  1  0
 27 18  1  0
  1 28  1  0
  1 29  1  0
  9 30  1  0
 10 31  1  0
 11 32  1  0
 14 33  1  0
 14 34  1  0
 16 35  1  0
 16 36  1  0
 17 37  1  0
 17 38  1  0
 21 39  1  0
 21 40  1  0
 21 41  1  0
 22 42  1  0
 25 43  1  0
 25 44  1  0
 25 45  1  0
 26 46  1  0
M  END
$$$$
confid_1
     RDKit          3D

 46 49  0  0  0  0  0  0  0  0999 V2000
   24.6900   26.1200   35.5300 N   0  0  0  0  0  0  0  0  0  0  0  0
   25.6600   25.6700   34.6600 C   0  0  0  0  0  0  0  0  0  0  0  0
   25.2400   25.0100   33.7200 O   0  0  0  0  0  0  0  0  0  0  0  0
   27.0300   26.2200   34.8800 C   0  0  0  0  0  0  0  0  0  0  0  0
   27.3500   26.7300   36.0700 N   0  0  0  0  0  0  0  0  0  0  0  0
   28.5700   27.1800   36.3300 N   0  0  0  0  0  0  0  0  0  0  0  0
   29.5300   27.1100   35.3900 C   0  0  0  0  0  0  0  0  0  0  0  0
   30.8300   27.5700   35.6500 C   0  0  0  0  0  0  0  0  0  0  0  0
   31.8500   27.5400   34.6900 C   0  0  0  0  0  0  0  0  0  0  0  0
   31.5100   27.1200   33.4000 C   0  0  0  0  0  0  0  0  0  0  0  0
   30.2200   26.6300   33.1100 C   0  0  0  0  0  0  0  0  0  0  0  0
   29.2400   26.6600   34.1000 C   0  0  0  0  0  0  0  0  0  0  0  0
   27.9300   26.2600   33.8100 C   0  0  0  0  0  0  0  0  0  0  0  0
   27.5200   25.7100   32.6100 N   0  0  0  0  0  0  0  0  0  0  0  0
   31.1523   28.0453   36.9681 N   0  0  0  0  0  0  0  0  0  0  0  0
   31.1803   27.1899   38.1566 C   0  0  0  0  0  0  0  0  0  0  0  0
   31.9316   27.9930   39.2455 C   0  0  0  0  0  0  0  0  0  0  0  0
   32.2925   29.2633   38.5547 C   0  0  0  0  0  0  0  0  0  0  0  0
   32.9843   30.3590   39.0760 C   0  0  0  0  0  0  0  0  0  0  0  0
   33.4318   30.3168   40.4046 O   0  0  0  0  0  0  0  0  0  0  0  0
   34.1447   31.3705   41.0432 C   0  0  0  0  0  0  0  0  0  0  0  0
   33.2007   31.4696   38.2285 C   0  0  0  0  0  0  0  0  0  0  0  0
   32.7241   31.4689   36.9015 C   0  0  0  0  0  0  0  0  0  0  0  0
   32.9631   32.6011   36.1088 O   0  0  0  0  0  0  0  0  0  0  0  0
   32.5448   32.7355   34.7544 C   0  0  0  0  0  0  0  0  0  0  0  0
   32.0257   30.3418   36.4140 C   0  0  0  0  0  0  0  0  0  0  0  0
   31.8378   29.2510   37.2663 C   0  0  0  0  0  0  0  0  0  0  0  0
   23.6981   25.8078   35.4227 H   0  0  0  0  0  0  0  0  0  0  0  0
   24.8908   26.7905   36.3050 H   0  0  0  0  0  0  0  0  0  0  0  0
   32.8547   27.8746   34.9160 H   0  0  0  0  0  0  0  0  0  0  0  0
   32.2647   27.1236   32.6243 H   0  0  0  0  0  0  0  0  0  0  0  0
   30.0103   26.3028   32.1005 H   0  0  0  0  0  0  0  0  0  0  0  0
   26.6941   26.1028   32.1054 H   0  0  0  0  0  0  0  0  0  0  0  0
   28.1316   25.0435   32.0893 H   0  0  0  0  0  0  0  0  0  0  0  0
   31.7219   26.2454   37.9314 H   0  0  0  0  0  0  0  0  0  0  0  0
   30.1461   26.9589   38.4886 H   0  0  0  0  0  0  0  0  0  0  0  0
   32.8487   27.4587   39.5744 H   0  0  0  0  0  0  0  0  0  0  0  0
   31.2703   28.2020   40.1137 H   0  0  0  0  0  0  0  0  0  0  0  0
   35.0999   31.5626   40.5104 H   0  0  0  0  0  0  0  0  0  0  0  0
   34.3735   31.0729   42.0869 H   0  0  0  0  0  0  0  0  0  0  0  0
   33.5261   32.2925   41.0633 H   0  0  0  0  0  0  0  0  0  0  0  0
   33.7326   32.3403   38.5872 H   0  0  0  0  0  0  0  0  0  0  0  0
   31.4380   32.6743   34.6889 H   0  0  0  0  0  0  0  0  0  0  0  0
   32.8693   33.7245   34.3711 H   0  0  0  0  0  0  0  0  0  0  0  0
   33.0091   31.9423   34.1309 H   0  0  0  0  0  0  0  0  0  0  0  0
   31.6337   30.3129   35.4070 H   0  0  0  0  0  0  0  0  0  0  0  0
  1  2  1  0
  2  3  2  0
  2  4  1  0
  4  5  2  0
  5  6  1  0
  6  7  2  0
  7  8  1  0
  8  9  2  0
  9 10  1  0
 10 11  2  0
 11 12  1  0
 12 13  2  0
 13 14  1  0
  8 15  1  0
 15 16  1  0
 16 17  1  0
 17 18  1  0
 18 19  2  0
 19 20  1  0
 20 21  1  0
 19 22  1  0
 22 23  2  0
 23 24  1  0
 24 25  1  0
 23 26  1  0
 26 27  2  0
 13  4  1  0
 27 15  1  0
 12  7  1  0
 27 18  1  0
  1 28  1  0
  1 29  1  0
  9 30  1  0
 10 31  1  0
 11 32  1  0
 14 33  1  0
 14 34  1  0
 16 35  1  0
 16 36  1  0
 17 37  1  0
 17 38  1  0
 21 39  1  0
 21 40  1  0
 21 41  1  0
 22 42  1  0
 25 43  1  0
 25 44  1  0
 25 45  1  0
 26 46  1  0
M  END
$$$$
confid_2
     RDKit          3D

 46 49  0  0  0  0  0  0  0  0999 V2000
   24.6900   26.1200   35.5300 N   0  0  0  0  0  0  0  0  0  0  0  0
   25.6600   25.6700   34.6600 C   0  0  0  0  0  0  0  0  0  0  0  0
   25.2400   25.0100   33.7200 O   0  0  0  0  0  0  0  0  0  0  0  0
   27.0300   26.2200   34.8800 C   0  0  0  0  0  0  0  0  0  0  0  0
   27.3500   26.7300   36.0700 N   0  0  0  0  0  0  0  0  0  0  0  0
   28.5700   27.1800   36.3300 N   0  0  0  0  0  0  0  0  0  0  0  0
   29.5300   27.1100   35.3900 C   0  0  0  0  0  0  0  0  0  0  0  0
   30.8300   27.5700   35.6500 C   0  0  0  0  0  0  0  0  0  0  0  0
   31.8500   27.5400   34.6900 C   0  0  0  0  0  0  0  0  0  0  0  0
   31.5100   27.1200   33.4000 C   0  0  0  0  0  0  0  0  0  0  0  0
   30.2200   26.6300   33.1100 C   0  0  0  0  0  0  0  0  0  0  0  0
   29.2400   26.6600   34.1000 C   0  0  0  0  0  0  0  0  0  0  0  0
   27.9300   26.2600   33.8100 C   0  0  0  0  0  0  0  0  0  0  0  0
   27.5200   25.7100   32.6100 N   0  0  0  0  0  0  0  0  0  0  0  0
   31.1565   28.0635   36.9585 N   0  0  0  0  0  0  0  0  0  0  0  0
   31.6090   29.4248   37.2412 C   0  0  0  0  0  0  0  0  0  0  0  0
   31.7388   29.5153   38.7814 C   0  0  0  0  0  0  0  0  0  0  0  0
   31.3861   28.1411   39.2436 C   0  0  0  0  0  0  0  0  0  0  0  0
   31.3817   27.6481   40.5505 C   0  0  0  0  0  0  0  0  0  0  0  0
   31.7176   28.5087   41.6060 O   0  0  0  0  0  0  0  0  0  0  0  0
   31.7495   28.1230   42.9760 C   0  0  0  0  0  0  0  0  0  0  0  0
   31.0373   26.2904   40.7464 C   0  0  0  0  0  0  0  0  0  0  0  0
   30.7193   25.4607   39.6406 C   0  0  0  0  0  0  0  0  0  0  0  0
   30.3825   24.1071   39.7895 O   0  0  0  0  0  0  0  0  0  0  0  0
   30.3192   23.4263   41.0383 C   0  0  0  0  0  0  0  0  0  0  0  0
   30.7404   25.9992   38.3437 C   0  0  0  0  0  0  0  0  0  0  0  0
   31.0629   27.3480   38.1790 C   0  0  0  0  0  0  0  0  0  0  0  0
   23.6981   25.8079   35.4226 H   0  0  0  0  0  0  0  0  0  0  0  0
   24.8909   26.7902   36.3053 H   0  0  0  0  0  0  0  0  0  0  0  0
   32.8525   27.8808   34.9154 H   0  0  0  0  0  0  0  0  0  0  0  0
   32.2644   27.1247   32.6239 H   0  0  0  0  0  0  0  0  0  0  0  0
   30.0102   26.3030   32.1005 H   0  0  0  0  0  0  0  0  0  0  0  0
   28.1316   25.0434   32.0893 H   0  0  0  0  0  0  0  0  0  0  0  0
   26.6941   26.1028   32.1054 H   0  0  0  0  0  0  0  0  0  0  0  0
   30.8619   30.1578   36.8674 H   0  0  0  0  0  0  0  0  0  0  0  0
   32.5923   29.6077   36.7570 H   0  0  0  0  0  0  0  0  0  0  0  0
   32.7787   29.7689   39.0796 H   0  0  0  0  0  0  0  0  0  0  0  0
   31.0227   30.2556   39.1984 H   0  0  0  0  0  0  0  0  0  0  0  0
   32.0456   28.9968   43.5917 H   0  0  0  0  0  0  0  0  0  0  0  0
   30.7431   27.7838   43.3005 H   0  0  0  0  0  0  0  0  0  0  0  0
   32.4935   27.3126   43.1272 H   0  0  0  0  0  0  0  0  0  0  0  0
   31.0232   25.8815   41.7457 H   0  0  0  0  0  0  0  0  0  0  0  0
   31.3130   23.4433   41.5334 H   0  0  0  0  0  0  0  0  0  0  0  0
   29.5570   23.8993   41.6929 H   0  0  0  0  0  0  0  0  0  0  0  0
   30.0290   22.3705   40.8611 H   0  0  0  0  0  0  0  0  0  0  0  0
   30.5136   25.3744   37.4897 H   0  0  0  0  0  0  0  0  0  0  0  0
  1  2  1  0
  2  3  2  0
  2  4  1  0
  4  5  2  0
  5  6  1  0
  6  7  2  0
  7  8  1  0
  8  9  2  0
  9 10  1  0
 10 11  2  0
 11 12  1  0
 12 13  2  0
 13 14  1  0
  8 15  1  0
 15 16  1  0
 16 17  1  0
 17 18  1  0
 18 19  2  0
 19 20  1  0
 20 21  1  0
 19 22  1  0
 22 23  2  0
 23 24  1  0
 24 25  1  0
 23 26  1  0
 26 27  2  0
 13  4  1  0
 27 15  1  0
 12  7  1  0
 27 18  1  0
  1 28  1  0
  1 29  1  0
  9 30  1  0
 10 31  1  0
 11 32  1  0
 14 33  1  0
 14 34  1  0
 16 35  1  0
 16 36  1  0
 17 37  1  0
 17 38  1  0
 21 39  1  0
 21 40  1  0
 21 41  1  0
 22 42  1  0
 25 43  1  0
 25 44  1  0
 25 45  1  0
 26 46  1  0
M  END
$$$$
confid_3
     RDKit          3D

 46 49  0  0  0  0  0  0  0  0999 V2000
   24.6900   26.1200   35.5300 N   0  0  0  0  0  0  0  0  0  0  0  0
   25.6600   25.6700   34.6600 C   0  0  0  0  0  0  0  0  0  0  0  0
   25.2400   25.0100   33.7200 O   0  0  0  0  0  0  0  0  0  0  0  0
   27.0300   26.2200   34.8800 C   0  0  0  0  0  0  0  0  0  0  0  0
   27.3500   26.7300   36.0700 N   0  0  0  0  0  0  0  0  0  0  0  0
   28.5700   27.1800   36.3300 N   0  0  0  0  0  0  0  0  0  0  0  0
   29.5300   27.1100   35.3900 C   0  0  0  0  0  0  0  0  0  0  0  0
   30.8300   27.5700   35.6500 C   0  0  0  0  0  0  0  0  0  0  0  0
   31.8500   27.5400   34.6900 C   0  0  0  0  0  0  0  0  0  0  0  0
   31.5100   27.1200   33.4000 C   0  0  0  0  0  0  0  0  0  0  0  0
   30.2200   26.6300   33.1100 C   0  0  0  0  0  0  0  0  0  0  0  0
   29.2400   26.6600   34.1000 C   0  0  0  0  0  0  0  0  0  0  0  0
   27.9300   26.2600   33.8100 C   0  0  0  0  0  0  0  0  0  0  0  0
   27.5200   25.7100   32.6100 N   0  0  0  0  0  0  0  0  0  0  0  0
   31.1581   28.0591   36.9601 N   0  0  0  0  0  0  0  0  0  0  0  0
   31.6252   29.4152   37.2453 C   0  0  0  0  0  0  0  0  0  0  0  0
   31.7524   29.5028   38.7858 C   0  0  0  0  0  0  0  0  0  0  0  0
   31.3839   28.1321   39.2459 C   0  0  0  0  0  0  0  0  0  0  0  0
   31.3697   27.6383   40.5524 C   0  0  0  0  0  0  0  0  0  0  0  0
   31.7128   28.4926   41.6106 O   0  0  0  0  0  0  0  0  0  0  0  0
   31.7349   28.1026   42.9794 C   0  0  0  0  0  0  0  0  0  0  0  0
   31.0077   26.2853   40.7451 C   0  0  0  0  0  0  0  0  0  0  0  0
   30.6830   25.4613   39.6479 C   0  0  0  0  0  0  0  0  0  0  0  0
   30.3364   24.1255   39.8989 O   0  0  0  0  0  0  0  0  0  0  0  0
   29.9727   23.1879   38.8908 C   0  0  0  0  0  0  0  0  0  0  0  0
   30.7162   25.9976   38.3415 C   0  0  0  0  0  0  0  0  0  0  0  0
   31.0548   27.3432   38.1797 C   0  0  0  0  0  0  0  0  0  0  0  0
   23.6981   25.8079   35.4226 H   0  0  0  0  0  0  0  0  0  0  0  0
   24.8909   26.7900   36.3054 H   0  0  0  0  0  0  0  0  0  0  0  0
   32.8532   27.8785   34.9158 H   0  0  0  0  0  0  0  0  0  0  0  0
   32.2659   27.1190   32.6254 H   0  0  0  0  0  0  0  0  0  0  0  0
   30.0115   26.2780   32.1080 H   0  0  0  0  0  0  0  0  0  0  0  0
   27.6979   26.2229   31.7183 H   0  0  0  0  0  0  0  0  0  0  0  0
   27.3415   24.6831   32.5417 H   0  0  0  0  0  0  0  0  0  0  0  0
   30.8872   30.1568   36.8704 H   0  0  0  0  0  0  0  0  0  0  0  0
   32.6115   29.5877   36.7637 H   0  0  0  0  0  0  0  0  0  0  0  0
   32.7943   29.7448   39.0867 H   0  0  0  0  0  0  0  0  0  0  0  0
   31.0434   30.2504   39.2019 H   0  0  0  0  0  0  0  0  0  0  0  0
   32.0399   28.9707   43.5988 H   0  0  0  0  0  0  0  0  0  0  0  0
   32.4679   27.2822   43.1308 H   0  0  0  0  0  0  0  0  0  0  0  0
   30.7231   27.7751   43.2993 H   0  0  0  0  0  0  0  0  0  0  0  0
   30.9795   25.8592   41.7388 H   0  0  0  0  0  0  0  0  0  0  0  0
   29.0716   23.5425   38.3468 H   0  0  0  0  0  0  0  0  0  0  0  0
   30.8150   23.0439   38.1816 H   0  0  0  0  0  0  0  0  0  0  0  0
   29.7397   22.2142   39.3682 H   0  0  0  0  0  0  0  0  0  0  0  0
   30.4898   25.3896   37.4771 H   0  0  0  0  0  0  0  0  0  0  0  0
  1  2  1  0
  2  3  2  0
  2  4  1  0
  4  5  2  0
  5  6  1  0
  6  7  2  0
  7  8  1  0
  8  9  2  0
  9 10  1  0
 10 11  2  0
 11 12  1  0
 12 13  2  0
 13 14  1  0
  8 15  1  0
 15 16  1  0
 16 17  1  0
 17 18  1  0
 18 19  2  0
 19 20  1  0
 20 21  1  0
 19 22  1  0
 22 23  2  0
 23 24  1  0
 24 25  1  0
 23 26  1  0
 26 27  2  0
 13  4  1  0
 27 15  1  0
 12  7  1  0
 27 18  1  0
  1 28  1  0
  1 29  1  0
  9 30  1  0
 10 31  1  0
 11 32  1  0
 14 33  1  0
 14 34  1  0
 16 35  1  0
 16 36  1  0
 17 37  1  0
 17 38  1  0
 21 39  1  0
 21 40  1  0
 21 41  1  0
 22 42  1  0
 25 43  1  0
 25 44  1  0
 25 45  1  0
 26 46  1  0
M  END
$$$$
confid_4
     RDKit          3D

 46 49  0  0  0  0  0  0  0  0999 V2000
   24.6900   26.1200   35.5300 N   0  0  0  0  0  0  0  0  0  0  0  0
   25.6600   25.6700   34.6600 C   0  0  0  0  0  0  0  0  0  0  0  0
   25.2400   25.0100   33.7200 O   0  0  0  0  0  0  0  0  0  0  0  0
   27.0300   26.2200   34.8800 C   0  0  0  0  0  0  0  0  0  0  0  0
   27.3500   26.7300   36.0700 N   0  0  0  0  0  0  0  0  0  0  0  0
   28.5700   27.1800   36.3300 N   0  0  0  0  0  0  0  0  0  0  0  0
   29.5300   27.1100   35.3900 C   0  0  0  0  0  0  0  0  0  0  0  0
   30.8300   27.5700   35.6500 C   0  0  0  0  0  0  0  0  0  0  0  0
   31.8500   27.5400   34.6900 C   0  0  0  0  0  0  0  0  0  0  0  0
   31.5100   27.1200   33.4000 C   0  0  0  0  0  0  0  0  0  0  0  0
   30.2200   26.6300   33.1100 C   0  0  0  0  0  0  0  0  0  0  0  0
   29.2400   26.6600   34.1000 C   0  0  0  0  0  0  0  0  0  0  0  0
   27.9300   26.2600   33.8100 C   0  0  0  0  0  0  0  0  0  0  0  0
   27.5200   25.7100   32.6100 N   0  0  0  0  0  0  0  0  0  0  0  0
   31.1400   28.0865   36.9552 N   0  0  0  0  0  0  0  0  0  0  0  0
   30.6082   29.3478   37.4757 C   0  0  0  0  0  0  0  0  0  0  0  0
   31.4774   29.7048   38.7055 C   0  0  0  0  0  0  0  0  0  0  0  0
   32.4703   28.5948   38.7642 C   0  0  0  0  0  0  0  0  0  0  0  0
   33.5022   28.4121   39.6877 C   0  0  0  0  0  0  0  0  0  0  0  0
   33.6860   29.3623   40.7031 O   0  0  0  0  0  0  0  0  0  0  0  0
   34.6996   29.2850   41.6997 C   0  0  0  0  0  0  0  0  0  0  0  0
   34.3186   27.2653   39.5522 C   0  0  0  0  0  0  0  0  0  0  0  0
   34.0823   26.3317   38.5106 C   0  0  0  0  0  0  0  0  0  0  0  0
   34.8628   25.1779   38.3449 O   0  0  0  0  0  0  0  0  0  0  0  0
   35.9575   24.8198   39.1818 C   0  0  0  0  0  0  0  0  0  0  0  0
   33.0314   26.5562   37.6065 C   0  0  0  0  0  0  0  0  0  0  0  0
   32.2484   27.7032   37.7532 C   0  0  0  0  0  0  0  0  0  0  0  0
   23.6981   25.8077   35.4228 H   0  0  0  0  0  0  0  0  0  0  0  0
   24.8908   26.7905   36.3050 H   0  0  0  0  0  0  0  0  0  0  0  0
   32.8484   27.8969   34.9097 H   0  0  0  0  0  0  0  0  0  0  0  0
   32.2648   27.1233   32.6243 H   0  0  0  0  0  0  0  0  0  0  0  0
   30.0113   26.2790   32.1077 H   0  0  0  0  0  0  0  0  0  0  0  0
   27.3415   24.6831   32.5416 H   0  0  0  0  0  0  0  0  0  0  0  0
   27.6977   26.2229   31.7183 H   0  0  0  0  0  0  0  0  0  0  0  0
   29.5457   29.2232   37.7737 H   0  0  0  0  0  0  0  0  0  0  0  0
   30.6902   30.1421   36.7021 H   0  0  0  0  0  0  0  0  0  0  0  0
   30.8662   29.7231   39.6333 H   0  0  0  0  0  0  0  0  0  0  0  0
   31.9943   30.6777   38.5603 H   0  0  0  0  0  0  0  0  0  0  0  0
   35.7034   29.2958   41.2249 H   0  0  0  0  0  0  0  0  0  0  0  0
   34.5718   28.3617   42.3033 H   0  0  0  0  0  0  0  0  0  0  0  0
   34.6149   30.1634   42.3717 H   0  0  0  0  0  0  0  0  0  0  0  0
   35.1250   27.0977   40.2505 H   0  0  0  0  0  0  0  0  0  0  0  0
   35.6096   24.6810   40.2273 H   0  0  0  0  0  0  0  0  0  0  0  0
   36.3912   23.8643   38.8222 H   0  0  0  0  0  0  0  0  0  0  0  0
   36.7425   25.6042   39.1404 H   0  0  0  0  0  0  0  0  0  0  0  0
   32.8309   25.8464   36.8144 H   0  0  0  0  0  0  0  0  0  0  0  0
  1  2  1  0
  2  3  2  0
  2  4  1  0
  4  5  2  0
  5  6  1  0
  6  7  2  0
  7  8  1  0
  8  9  2  0
  9 10  1  0
 10 11  2  0
 11 12  1  0
 12 13  2  0
 13 14  1  0
  8 15  1  0
 15 16  1  0
 16 17  1  0
 17 18  1  0
 18 19  2  0
 19 20  1  0
 20 21  1  0
 19 22  1  0
 22 23  2  0
 23 24  1  0
 24 25  1  0
 23 26  1  0
 26 27  2  0
 13  4  1  0
 27 15  1  0
 12  7  1  0
 27 18  1  0
  1 28  1  0
  1 29  1  0
  9 30  1  0
 10 31  1  0
 11 32  1  0
 14 33  1  0
 14 34  1  0
 16 35  1  0
 16 36  1  0
 17 37  1  0
 17 38  1  0
 21 39  1  0
 21 40  1  0
 21 41  1  0
 22 42  1  0
 25 43  1  0
 25 44  1  0
 25 45  1  0
 26 46  1  0
M  END
$$$$
confid_5
     RDKit          3D

 46 49  0  0  0  0  0  0  0  0999 V2000
   24.6900   26.1200   35.5300 N   0  0  0  0  0  0  0  0  0  0  0  0
   25.6600   25.6700   34.6600 C   0  0  0  0  0  0  0  0  0  0  0  0
   25.2400   25.0100   33.7200 O   0  0  0  0  0  0  0  0  0  0  0  0
   27.0300   26.2200   34.8800 C   0  0  0  0  0  0  0  0  0  0  0  0
   27.3500   26.7300   36.0700 N   0  0  0  0  0  0  0  0  0  0  0  0
   28.5700   27.1800   36.3300 N   0  0  0  0  0  0  0  0  0  0  0  0
   29.5300   27.1100   35.3900 C   0  0  0  0  0  0  0  0  0  0  0  0
   30.8300   27.5700   35.6500 C   0  0  0  0  0  0  0  0  0  0  0  0
   31.8500   27.5400   34.6900 C   0  0  0  0  0  0  0  0  0  0  0  0
   31.5100   27.1200   33.4000 C   0  0  0  0  0  0  0  0  0  0  0  0
   30.2200   26.6300   33.1100 C   0  0  0  0  0  0  0  0  0  0  0  0
   29.2400   26.6600   34.1000 C   0  0  0  0  0  0  0  0  0  0  0  0
   27.9300   26.2600   33.8100 C   0  0  0  0  0  0  0  0  0  0  0  0
   27.5200   25.7100   32.6100 N   0  0  0  0  0  0  0  0  0  0  0  0
   31.1528   28.0435   36.9687 N   0  0  0  0  0  0  0  0  0  0  0  0
   31.1803   27.1864   38.1559 C   0  0  0  0  0  0  0  0  0  0  0  0
   31.9322   27.9877   39.2460 C   0  0  0  0  0  0  0  0  0  0  0  0
   32.2935   29.2588   38.5569 C   0  0  0  0  0  0  0  0  0  0  0  0
   32.9852   30.3538   39.0800 C   0  0  0  0  0  0  0  0  0  0  0  0
   33.4321   30.3078   40.4089 O   0  0  0  0  0  0  0  0  0  0  0  0
   34.1450   31.3588   41.0520 C   0  0  0  0  0  0  0  0  0  0  0  0
   33.2019   31.4670   38.2350 C   0  0  0  0  0  0  0  0  0  0  0  0
   32.7200   31.4634   36.9009 C   0  0  0  0  0  0  0  0  0  0  0  0
   32.9062   32.5491   36.0322 O   0  0  0  0  0  0  0  0  0  0  0  0
   33.5860   33.7507   36.3801 C   0  0  0  0  0  0  0  0  0  0  0  0
   32.0277   30.3405   36.4191 C   0  0  0  0  0  0  0  0  0  0  0  0
   31.8391   29.2483   37.2686 C   0  0  0  0  0  0  0  0  0  0  0  0
   23.6981   25.8078   35.4227 H   0  0  0  0  0  0  0  0  0  0  0  0
   24.8908   26.7905   36.3050 H   0  0  0  0  0  0  0  0  0  0  0  0
   32.8548   27.8741   34.9162 H   0  0  0  0  0  0  0  0  0  0  0  0
   32.2648   27.1234   32.6243 H   0  0  0  0  0  0  0  0  0  0  0  0
   30.0103   26.3027   32.1005 H   0  0  0  0  0  0  0  0  0  0  0  0
   26.6941   26.1028   32.1054 H   0  0  0  0  0  0  0  0  0  0  0  0
   28.1316   25.0434   32.0893 H   0  0  0  0  0  0  0  0  0  0  0  0
   31.7214   26.2419   37.9296 H   0  0  0  0  0  0  0  0  0  0  0  0
   30.1460   26.9556   38.4877 H   0  0  0  0  0  0  0  0  0  0  0  0
   32.8490   27.4525   39.5739 H   0  0  0  0  0  0  0  0  0  0  0  0
   31.2710   28.1957   40.1145 H   0  0  0  0  0  0  0  0  0  0  0  0
   35.1009   31.5523   40.5209 H   0  0  0  0  0  0  0  0  0  0  0  0
   34.3726   31.0571   42.0948 H   0  0  0  0  0  0  0  0  0  0  0  0
   33.5268   32.2810   41.0752 H   0  0  0  0  0  0  0  0  0  0  0  0
   33.7347   32.3277   38.6110 H   0  0  0  0  0  0  0  0  0  0  0  0
   33.5851   34.4336   35.5060 H   0  0  0  0  0  0  0  0  0  0  0  0
   33.0668   34.2527   37.2238 H   0  0  0  0  0  0  0  0  0  0  0  0
   34.6383   33.5280   36.6561 H   0  0  0  0  0  0  0  0  0  0  0  0
   31.6427   30.3285   35.4076 H   0  0  0  0  0  0  0  0  0  0  0  0
  1  2  1  0
  2  3  2  0
  2  4  1  0
  4  5  2  0
  5  6  1  0
  6  7  2  0
  7  8  1  0
  8  9  2  0
  9 10  1  0
 10 11  2  0
 11 12  1  0
 12 13  2  0
 13 14  1  0
  8 15  1  0
 15 16  1  0
 16 17  1  0
 17 18  1  0
 18 19  2  0
 19 20  1  0
 20 21  1  0
 19 22  1  0
 22 23  2  0
 23 24  1  0
 24 25  1  0
 23 26  1  0
 26 27  2  0
 13  4  1  0
 27 15  1  0
 12  7  1  0
 27 18  1  0
  1 28  1  0
  1 29  1  0
  9 30  1  0
 10 31  1  0
 11 32  1  0
 14 33  1  0
 14 34  1  0
 16 35  1  0
 16 36  1  0
 17 37  1  0
 17 38  1  0
 21 39  1  0
 21 40  1  0
 21 41  1  0
 22 42  1  0
 25 43  1  0
 25 44  1  0
 25 45  1  0
 26 46  1  0
M  END
$$$$
confid_6
     RDKit          3D

 46 49  0  0  0  0  0  0  0  0999 V2000
   24.6900   26.1200   35.5300 N   0  0  0  0  0  0  0  0  0  0  0  0
   25.6600   25.6700   34.6600 C   0  0  0  0  0  0  0  0  0  0  0  0
   25.2400   25.0100   33.7200 O   0  0  0  0  0  0  0  0  0  0  0  0
   27.0300   26.2200   34.8800 C   0  0  0  0  0  0  0  0  0  0  0  0
   27.3500   26.7300   36.0700 N   0  0  0  0  0  0  0  0  0  0  0  0
   28.5700   27.1800   36.3300 N   0  0  0  0  0  0  0  0  0  0  0  0
   29.5300   27.1100   35.3900 C   0  0  0  0  0  0  0  0  0  0  0  0
   30.8300   27.5700   35.6500 C   0  0  0  0  0  0  0  0  0  0  0  0
   31.8500   27.5400   34.6900 C   0  0  0  0  0  0  0  0  0  0  0  0
   31.5100   27.1200   33.4000 C   0  0  0  0  0  0  0  0  0  0  0  0
   30.2200   26.6300   33.1100 C   0  0  0  0  0  0  0  0  0  0  0  0
   29.2400   26.6600   34.1000 C   0  0  0  0  0  0  0  0  0  0  0  0
   27.9300   26.2600   33.8100 C   0  0  0  0  0  0  0  0  0  0  0  0
   27.5200   25.7100   32.6100 N   0  0  0  0  0  0  0  0  0  0  0  0
   31.1524   28.0754   36.9550 N   0  0  0  0  0  0  0  0  0  0  0  0
   32.1427   27.4838   37.8535 C   0  0  0  0  0  0  0  0  0  0  0  0
   32.0770   28.3137   39.1591 C   0  0  0  0  0  0  0  0  0  0  0  0
   31.0605   29.3632   38.8558 C   0  0  0  0  0  0  0  0  0  0  0  0
   30.6361   30.4121   39.6747 C   0  0  0  0  0  0  0  0  0  0  0  0
   31.1788   30.5378   40.9619 O   0  0  0  0  0  0  0  0  0  0  0  0
   30.8249   31.5637   41.8832 C   0  0  0  0  0  0  0  0  0  0  0  0
   29.6705   31.3064   39.1583 C   0  0  0  0  0  0  0  0  0  0  0  0
   29.1629   31.1461   37.8526 C   0  0  0  0  0  0  0  0  0  0  0  0
   28.2100   32.0666   37.3918 O   0  0  0  0  0  0  0  0  0  0  0  0
   27.6035   32.0169   36.1044 C   0  0  0  0  0  0  0  0  0  0  0  0
   29.6233   30.0759   37.0539 C   0  0  0  0  0  0  0  0  0  0  0  0
   30.5613   29.1936   37.5951 C   0  0  0  0  0  0  0  0  0  0  0  0
   23.6982   25.8075   35.4230 H   0  0  0  0  0  0  0  0  0  0  0  0
   24.8907   26.7913   36.3044 H   0  0  0  0  0  0  0  0  0  0  0  0
   32.8489   27.8938   34.9115 H   0  0  0  0  0  0  0  0  0  0  0  0
   32.2635   27.1279   32.6230 H   0  0  0  0  0  0  0  0  0  0  0  0
   30.0099   26.3038   32.1003 H   0  0  0  0  0  0  0  0  0  0  0  0
   28.1317   25.0436   32.0892 H   0  0  0  0  0  0  0  0  0  0  0  0
   26.6941   26.1028   32.1054 H   0  0  0  0  0  0  0  0  0  0  0  0
   31.8872   26.4205   38.0518 H   0  0  0  0  0  0  0  0  0  0  0  0
   33.1556   27.5506   37.4015 H   0  0  0  0  0  0  0  0  0  0  0  0
   31.7386   27.6874   40.0122 H   0  0  0  0  0  0  0  0  0  0  0  0
   33.0597   28.7806   39.3846 H   0  0  0  0  0  0  0  0  0  0  0  0
   31.0701   32.5598   41.4579 H   0  0  0  0  0  0  0  0  0  0  0  0
   31.4028   31.4249   42.8198 H   0  0  0  0  0  0  0  0  0  0  0  0
   29.7418   31.5057   42.1214 H   0  0  0  0  0  0  0  0  0  0  0  0
   29.3093   32.1320   39.7566 H   0  0  0  0  0  0  0  0  0  0  0  0
   26.8847   32.8562   36.0095 H   0  0  0  0  0  0  0  0  0  0  0  0
   28.3767   32.1195   35.3139 H   0  0  0  0  0  0  0  0  0  0  0  0
   27.0529   31.0605   35.9784 H   0  0  0  0  0  0  0  0  0  0  0  0
   29.2676   29.9328   36.0433 H   0  0  0  0  0  0  0  0  0  0  0  0
  1  2  1  0
  2  3  2  0
  2  4  1  0
  4  5  2  0
  5  6  1  0
  6  7  2  0
  7  8  1  0
  8  9  2  0
  9 10  1  0
 10 11  2  0
 11 12  1  0
 12 13  2  0
 13 14  1  0
  8 15  1  0
 15 16  1  0
 16 17  1  0
 17 18  1  0
 18 19  2  0
 19 20  1  0
 20 21  1  0
 19 22  1  0
 22 23  2  0
 23 24  1  0
 24 25  1  0
 23 26  1  0
 26 27  2  0
 13  4  1  0
 27 15  1  0
 12  7  1  0
 27 18  1  0
  1 28  1  0
  1 29  1  0
  9 30  1  0
 10 31  1  0
 11 32  1  0
 14 33  1  0
 14 34  1  0
 16 35  1  0
 16 36  1  0
 17 37  1  0
 17 38  1  0
 21 39  1  0
 21 40  1  0
 21 41  1  0
 22 42  1  0
 25 43  1  0
 25 44  1  0
 25 45  1  0
 26 46  1  0
M  END
$$$$
confid_7
     RDKit          3D

 46 49  0  0  0  0  0  0  0  0999 V2000
   24.6900   26.1200   35.5300 N   0  0  0  0  0  0  0  0  0  0  0  0
   25.6600   25.6700   34.6600 C   0  0  0  0  0  0  0  0  0  0  0  0
   25.2400   25.0100   33.7200 O   0  0  0  0  0  0  0  0  0  0  0  0
   27.0300   26.2200   34.8800 C   0  0  0  0  0  0  0  0  0  0  0  0
   27.3500   26.7300   36.0700 N   0  0  0  0  0  0  0  0  0  0  0  0
   28.5700   27.1800   36.3300 N   0  0  0  0  0  0  0  0  0  0  0  0
   29.5300   27.1100   35.3900 C   0  0  0  0  0  0  0  0  0  0  0  0
   30.8300   27.5700   35.6500 C   0  0  0  0  0  0  0  0  0  0  0  0
   31.8500   27.5400   34.6900 C   0  0  0  0  0  0  0  0  0  0  0  0
   31.5100   27.1200   33.4000 C   0  0  0  0  0  0  0  0  0  0  0  0
   30.2200   26.6300   33.1100 C   0  0  0  0  0  0  0  0  0  0  0  0
   29.2400   26.6600   34.1000 C   0  0  0  0  0  0  0  0  0  0  0  0
   27.9300   26.2600   33.8100 C   0  0  0  0  0  0  0  0  0  0  0  0
   27.5200   25.7100   32.6100 N   0  0  0  0  0  0  0  0  0  0  0  0
   31.1534   28.0705   36.9563 N   0  0  0  0  0  0  0  0  0  0  0  0
   32.1330   27.4661   37.8579 C   0  0  0  0  0  0  0  0  0  0  0  0
   32.0707   28.2941   39.1647 C   0  0  0  0  0  0  0  0  0  0  0  0
   31.0667   29.3551   38.8593 C   0  0  0  0  0  0  0  0  0  0  0  0
   30.6510   30.4075   39.6781 C   0  0  0  0  0  0  0  0  0  0  0  0
   31.1902   30.5231   40.9679 O   0  0  0  0  0  0  0  0  0  0  0  0
   30.8466   31.5504   41.8916 C   0  0  0  0  0  0  0  0  0  0  0  0
   29.6987   31.3156   39.1596 C   0  0  0  0  0  0  0  0  0  0  0  0
   29.1960   31.1588   37.8422 C   0  0  0  0  0  0  0  0  0  0  0  0
   28.2584   32.0416   37.2860 O   0  0  0  0  0  0  0  0  0  0  0  0
   27.7132   33.1685   37.9642 C   0  0  0  0  0  0  0  0  0  0  0  0
   29.6456   30.0871   37.0538 C   0  0  0  0  0  0  0  0  0  0  0  0
   30.5710   29.1931   37.5965 C   0  0  0  0  0  0  0  0  0  0  0  0
   24.8907   26.7908   36.3048 H   0  0  0  0  0  0  0  0  0  0  0  0
   23.6982   25.8076   35.4229 H   0  0  0  0  0  0  0  0  0  0  0  0
   32.8495   27.8916   34.9124 H   0  0  0  0  0  0  0  0  0  0  0  0
   32.2650   27.1221   32.6246 H   0  0  0  0  0  0  0  0  0  0  0  0
   30.0113   26.2788   32.1078 H   0  0  0  0  0  0  0  0  0  0  0  0
   27.6977   26.2230   31.7183 H   0  0  0  0  0  0  0  0  0  0  0  0
   27.3415   24.6831   32.5416 H   0  0  0  0  0  0  0  0  0  0  0  0
   33.1485   27.5224   37.4102 H   0  0  0  0  0  0  0  0  0  0  0  0
   31.8646   26.4054   38.0529 H   0  0  0  0  0  0  0  0  0  0  0  0
   33.0574   28.7501   39.3952 H   0  0  0  0  0  0  0  0  0  0  0  0
   31.7221   27.6699   40.0153 H   0  0  0  0  0  0  0  0  0  0  0  0
   31.1064   32.5446   41.4707 H   0  0  0  0  0  0  0  0  0  0  0  0
   29.7620   31.5057   42.1260 H   0  0  0  0  0  0  0  0  0  0  0  0
   31.4194   31.4008   42.8296 H   0  0  0  0  0  0  0  0  0  0  0  0
   29.3569   32.1381   39.7700 H   0  0  0  0  0  0  0  0  0  0  0  0
   27.1688   32.8398   38.8746 H   0  0  0  0  0  0  0  0  0  0  0  0
   26.9994   33.6860   37.2911 H   0  0  0  0  0  0  0  0  0  0  0  0
   28.5225   33.8783   38.2372 H   0  0  0  0  0  0  0  0  0  0  0  0
   29.2808   29.9622   36.0426 H   0  0  0  0  0  0  0  0  0  0  0  0
  1  2  1  0
  2  3  2  0
  2  4  1  0
  4  5  2  0
  5  6  1  0
  6  7  2  0
  7  8  1  0
  8  9  2  0
  9 10  1  0
 10 11  2  0
 11 12  1  0
 12 13  2  0
 13 14  1  0
  8 15  1  0
 15 16  1  0
 16 17  1  0
 17 18  1  0
 18 19  2  0
 19 20  1  0
 20 21  1  0
 19 22  1  0
 22 23  2  0
 23 24  1  0
 24 25  1  0
 23 26  1  0
 26 27  2  0
 13  4  1  0
 27 15  1  0
 12  7  1  0
 27 18  1  0
  1 28  1  0
  1 29  1  0
  9 30  1  0
 10 31  1  0
 11 32  1  0
 14 33  1  0
 14 34  1  0
 16 35  1  0
 16 36  1  0
 17 37  1  0
 17 38  1  0
 21 39  1  0
 21 40  1  0
 21 41  1  0
 22 42  1  0
 25 43  1  0
 25 44  1  0
 25 45  1  0
 26 46  1  0
M  END
$$$$
