confid_0
     RDKit          3D

 47 50  0  0  0  0  0  0  0  0999 V2000
   24.4800   26.1000   36.1300 N   0  0  0  0  0  0  0  0  0  0  0  0
   25.2500   26.2500   34.9900 C   0  0  0  0  0  0  0  0  0  0  0  0
   24.7400   25.7600   33.9900 O   0  0  0  0  0  0  0  0  0  0  0  0
   26.5900   26.8900   34.9600 C   0  0  0  0  0  0  0  0  0  0  0  0
   27.0600   27.2400   36.1600 N   0  0  0  0  0  0  0  0  0  0  0  0
   28.3000   27.7100   36.2400 N   0  0  0  0  0  0  0  0  0  0  0  0
   29.0500   27.9600   35.1500 C   0  0  0  0  0  0  0  0  0  0  0  0
   30.3400   28.4900   35.2600 C   0  0  0  0  0  0  0  0  0  0  0  0
   31.1100   28.8200   34.1400 C   0  0  0  0  0  0  0  0  0  0  0  0
   30.5200   28.6700   32.8800 C   0  0  0  0  0  0  0  0  0  0  0  0
   29.2900   28.0200   32.7700 C   0  0  0  0  0  0  0  0  0  0  0  0
   28.5200   27.7100   33.8900 C   0  0  0  0  0  0  0  0  0  0  0  0
   27.2700   27.0800   33.7600 C   0  0  0  0  0  0  0  0  0  0  0  0
   26.7500   26.8800   32.4900 N   0  0  0  0  0  0  0  0  0  0  0  0
   23.0501   25.9034   36.1316 C   0  0  0  0  0  0  0  0  0  0  0  0
   22.2387   26.6188   35.2393 C   0  0  0  0  0  0  0  0  0  0  0  0
   20.8459   26.4809   35.2363 C   0  0  0  0  0  0  0  0  0  0  0  0
   20.1610   27.2544   34.2845 O   0  0  0  0  0  0  0  0  0  0  0  0
   18.7645   27.2532   34.0272 C   0  0  0  0  0  0  0  0  0  0  0  0
   18.2576   25.8277   33.8586 C   0  0  0  0  0  0  0  0  0  0  0  0
   17.8753   25.2929   35.1649 N   0  0  0  0  0  0  0  0  0  0  0  0
   18.7606   25.3906   36.3002 C   0  0  0  0  0  0  0  0  0  0  0  0
   18.2827   25.2325   37.4584 O   0  0  0  0  0  0  0  0  0  0  0  0
   20.2303   25.6010   36.1709 C   0  0  0  0  0  0  0  0  0  0  0  0
   21.0518   24.9049   37.0793 C   0  0  0  0  0  0  0  0  0  0  0  0
   22.4473   25.0377   37.0631 C   0  0  0  0  0  0  0  0  0  0  0  0
   23.2766   24.2628   38.0521 C   0  0  0  0  0  0  0  0  0  0  0  0
   16.5347   24.7292   35.3593 C   0  0  0  0  0  0  0  0  0  0  0  0
   24.9652   26.1254   37.0544 H   0  0  0  0  0  0  0  0  0  0  0  0
   30.7582   28.6624   36.2441 H   0  0  0  0  0  0  0  0  0  0  0  0
   32.0994   29.2455   34.2469 H   0  0  0  0  0  0  0  0  0  0  0  0
   31.0716   28.9442   31.9898 H   0  0  0  0  0  0  0  0  0  0  0  0
   28.9437   27.8129   31.7670 H   0  0  0  0  0  0  0  0  0  0  0  0
   26.7154   27.6568   31.7928 H   0  0  0  0  0  0  0  0  0  0  0  0
   26.3613   25.9530   32.2111 H   0  0  0  0  0  0  0  0  0  0  0  0
   22.6928   27.3134   34.5431 H   0  0  0  0  0  0  0  0  0  0  0  0
   18.5871   27.8194   33.0884 H   0  0  0  0  0  0  0  0  0  0  0  0
   18.2261   27.7806   34.8450 H   0  0  0  0  0  0  0  0  0  0  0  0
   17.3902   25.8405   33.1636 H   0  0  0  0  0  0  0  0  0  0  0  0
   19.0403   25.1833   33.4020 H   0  0  0  0  0  0  0  0  0  0  0  0
   20.5998   24.2355   37.8026 H   0  0  0  0  0  0  0  0  0  0  0  0
   22.6846   23.4599   38.5408 H   0  0  0  0  0  0  0  0  0  0  0  0
   23.6556   24.9493   38.8379 H   0  0  0  0  0  0  0  0  0  0  0  0
   24.1351   23.7813   37.5378 H   0  0  0  0  0  0  0  0  0  0  0  0
   15.9721   24.6596   34.4046 H   0  0  0  0  0  0  0  0  0  0  0  0
   16.6179   23.7048   35.7800 H   0  0  0  0  0  0  0  0  0  0  0  0
   15.9568   25.3672   36.0609 H   0  0  0  0  0  0  0  0  0  0  0  0
  1  2  1  0
  2  3  2  0
  2  4  1  0
  4  5  2  0
  5  6  1  0
  6  7  2  0
  7  8  1  0
  8  9  2  0
  9 10  1  0
 10 11  2  0
 11 12  1  0
 12 13  2  0
 13 14  1  0
  1 15  1  0
 15 16  2  0
 16 17  1  0
 17 18  1  0
 18 19  1  0
 19 20  1  0
 20 21  1  0
 21 22  1  0
 22 23  2  0
 22 24  1  0
 24 25  1  0
 25 26  2  0
 26 27  1  0
 21 28  1  0
 13  4  1  0
 26 15  1  0
 12  7  1  0
 24 17  2  0
  1 29  1  0
  8 30  1  0
  9 31  1  0
 10 32  1  0
 11 33  1  0
 14 34  1  0
 14 35  1  0
 16 36  1  0
 19 37  1  0
 19 38  1  0
 20 39  1  0
 20 40  1  0
 25 41  1  0
 27 42  1  0
 27 43  1  0
 27 44  1  0
 28 45  1  0
 28 46  1  0
 28 47  1  0
M  END
$$$$
confid_1
     RDKit          3D

 47 50  0  0  0  0  0  0  0  0999 V2000
   24.4800   26.1000   36.1300 N   0  0  0  0  0  0  0  0  0  0  0  0
   25.2500   26.2500   34.9900 C   0  0  0  0  0  0  0  0  0  0  0  0
   24.7400   25.7600   33.9900 O   0  0  0  0  0  0  0  0  0  0  0  0
   26.5900   26.8900   34.9600 C   0  0  0  0  0  0  0  0  0  0  0  0
   27.0600   27.2400   36.1600 N   0  0  0  0  0  0  0  0  0  0  0  0
   28.3000   27.7100   36.2400 N   0  0  0  0  0  0  0  0  0  0  0  0
   29.0500   27.9600   35.1500 C   0  0  0  0  0  0  0  0  0  0  0  0
   30.3400   28.4900   35.2600 C   0  0  0  0  0  0  0  0  0  0  0  0
   31.1100   28.8200   34.1400 C   0  0  0  0  0  0  0  0  0  0  0  0
   30.5200   28.6700   32.8800 C   0  0  0  0  0  0  0  0  0  0  0  0
   29.2900   28.0200   32.7700 C   0  0  0  0  0  0  0  0  0  0  0  0
   28.5200   27.7100   33.8900 C   0  0  0  0  0  0  0  0  0  0  0  0
   27.2700   27.0800   33.7600 C   0  0  0  0  0  0  0  0  0  0  0  0
   26.7500   26.8800   32.4900 N   0  0  0  0  0  0  0  0  0  0  0  0
   23.4587   25.0954   36.3045 C   0  0  0  0  0  0  0  0  0  0  0  0
   23.6756   23.7847   35.8568 C   0  0  0  0  0  0  0  0  0  0  0  0
   22.7231   22.7758   36.0400 C   0  0  0  0  0  0  0  0  0  0  0  0
   23.0727   21.5119   35.5365 O   0  0  0  0  0  0  0  0  0  0  0  0
   22.2693   20.3411   35.5341 C   0  0  0  0  0  0  0  0  0  0  0  0
   20.8865   20.6488   34.9773 C   0  0  0  0  0  0  0  0  0  0  0  0
   20.0106   21.0781   36.0667 N   0  0  0  0  0  0  0  0  0  0  0  0
   20.4245   22.0961   37.0018 C   0  0  0  0  0  0  0  0  0  0  0  0
   19.8077   22.1998   38.0988 O   0  0  0  0  0  0  0  0  0  0  0  0
   21.5039   23.0810   36.7089 C   0  0  0  0  0  0  0  0  0  0  0  0
   21.3055   24.3952   37.1762 C   0  0  0  0  0  0  0  0  0  0  0  0
   22.2598   25.4019   36.9740 C   0  0  0  0  0  0  0  0  0  0  0  0
   21.9925   26.7911   37.4891 C   0  0  0  0  0  0  0  0  0  0  0  0
   18.7227   20.4067   36.2761 C   0  0  0  0  0  0  0  0  0  0  0  0
   24.6412   26.7701   36.9149 H   0  0  0  0  0  0  0  0  0  0  0  0
   30.7582   28.6623   36.2441 H   0  0  0  0  0  0  0  0  0  0  0  0
   32.0994   29.2455   34.2469 H   0  0  0  0  0  0  0  0  0  0  0  0
   31.0716   28.9442   31.9898 H   0  0  0  0  0  0  0  0  0  0  0  0
   28.9437   27.8129   31.7669 H   0  0  0  0  0  0  0  0  0  0  0  0
   26.3615   25.9529   32.2111 H   0  0  0  0  0  0  0  0  0  0  0  0
   26.7157   27.6566   31.7925 H   0  0  0  0  0  0  0  0  0  0  0  0
   24.6111   23.5334   35.3720 H   0  0  0  0  0  0  0  0  0  0  0  0
   22.2079   19.9189   36.5610 H   0  0  0  0  0  0  0  0  0  0  0  0
   22.7650   19.5852   34.8888 H   0  0  0  0  0  0  0  0  0  0  0  0
   20.4911   19.7339   34.4850 H   0  0  0  0  0  0  0  0  0  0  0  0
   20.9424   21.4448   34.2031 H   0  0  0  0  0  0  0  0  0  0  0  0
   20.3863   24.6443   37.6945 H   0  0  0  0  0  0  0  0  0  0  0  0
   22.6219   26.9838   38.3830 H   0  0  0  0  0  0  0  0  0  0  0  0
   22.2267   27.5417   36.7048 H   0  0  0  0  0  0  0  0  0  0  0  0
   20.9268   26.9233   37.7736 H   0  0  0  0  0  0  0  0  0  0  0  0
   18.7383   19.8563   37.2406 H   0  0  0  0  0  0  0  0  0  0  0  0
   18.4956   19.6838   35.4646 H   0  0  0  0  0  0  0  0  0  0  0  0
   17.9078   21.1609   36.2982 H   0  0  0  0  0  0  0  0  0  0  0  0
  1  2  1  0
  2  3  2  0
  2  4  1  0
  4  5  2  0
  5  6  1  0
  6  7  2  0
  7  8  1  0
  8  9  2  0
  9 10  1  0
 10 11  2  0
 11 12  1  0
 12 13  2  0
 13 14  1  0
  1 15  1  0
 15 16  2  0
 16 17  1  0
 17 18  1  0
 18 19  1  0
 19 20  1  0
 20 21  1  0
 21 22  1  0
 22 23  2  0
 22 24  1  0
 24 25  1  0
 25 26  2  0
 26 27  1  0
 21 28  1  0
 13  4  1  0
 26 15  1  0
 12  7  1  0
 24 17  2  0
  1 29  1  0
  8 30  1  0
  9 31  1  0
 10 32  1  0
 11 33  1  0
 14 34  1  0
 14 35  1  0
 16 36  1  0
 19 37  1  0
 19 38  1  0
 20 39  1  0
 20 40  1  0
 25 41  1  0
 27 42  1  0
 27 43  1  0
 27 44  1  0
 28 45  1  0
 28 46  1  0
 28 47  1  0
M  END
$$$$
confid_2
     RDKit          3D

 47 50  0  0  0  0  0  0  0  0999 V2000
   24.4800   26.1000   36.1300 N   0  0  0  0  0  0  0  0  0  0  0  0
   25.2500   26.2500   34.9900 C   0  0  0  0  0  0  0  0  0  0  0  0
   24.7400   25.7600   33.9900 O   0  0  0  0  0  0  0  0  0  0  0  0
   26.5900   26.8900   34.9600 C   0  0  0  0  0  0  0  0  0  0  0  0
   27.0600   27.2400   36.1600 N   0  0  0  0  0  0  0  0  0  0  0  0
   28.3000   27.7100   36.2400 N   0  0  0  0  0  0  0  0  0  0  0  0
   29.0500   27.9600   35.1500 C   0  0  0  0  0  0  0  0  0  0  0  0
   30.3400   28.4900   35.2600 C   0  0  0  0  0  0  0  0  0  0  0  0
   31.1100   28.8200   34.1400 C   0  0  0  0  0  0  0  0  0  0  0  0
   30.5200   28.6700   32.8800 C   0  0  0  0  0  0  0  0  0  0  0  0
   29.2900   28.0200   32.7700 C   0  0  0  0  0  0  0  0  0  0  0  0
   28.5200   27.7100   33.8900 C   0  0  0  0  0  0  0  0  0  0  0  0
   27.2700   27.0800   33.7600 C   0  0  0  0  0  0  0  0  0  0  0  0
   26.7500   26.8800   32.4900 N   0  0  0  0  0  0  0  0  0  0  0  0
   23.0499   25.9049   36.1315 C   0  0  0  0  0  0  0  0  0  0  0  0
   22.2392   26.6209   35.2390 C   0  0  0  0  0  0  0  0  0  0  0  0
   20.8479   26.4726   35.2311 C   0  0  0  0  0  0  0  0  0  0  0  0
   20.1494   27.2414   34.2930 O   0  0  0  0  0  0  0  0  0  0  0  0
   19.0489   26.7813   33.5234 C   0  0  0  0  0  0  0  0  0  0  0  0
   17.8018   26.7054   34.3783 C   0  0  0  0  0  0  0  0  0  0  0  0
   17.8548   25.5143   35.2183 N   0  0  0  0  0  0  0  0  0  0  0  0
   18.7552   25.4622   36.3334 C   0  0  0  0  0  0  0  0  0  0  0  0
   18.2862   25.1906   37.4734 O   0  0  0  0  0  0  0  0  0  0  0  0
   20.2287   25.6168   36.1801 C   0  0  0  0  0  0  0  0  0  0  0  0
   21.0491   24.9152   37.0858 C   0  0  0  0  0  0  0  0  0  0  0  0
   22.4460   25.0385   37.0623 C   0  0  0  0  0  0  0  0  0  0  0  0
   23.2746   24.2592   38.0485 C   0  0  0  0  0  0  0  0  0  0  0  0
   16.7751   24.5300   35.1268 C   0  0  0  0  0  0  0  0  0  0  0  0
   24.9654   26.1228   37.0544 H   0  0  0  0  0  0  0  0  0  0  0  0
   30.7582   28.6623   36.2441 H   0  0  0  0  0  0  0  0  0  0  0  0
   32.0994   29.2454   34.2469 H   0  0  0  0  0  0  0  0  0  0  0  0
   31.0715   28.9443   31.9898 H   0  0  0  0  0  0  0  0  0  0  0  0
   28.9437   27.8129   31.7669 H   0  0  0  0  0  0  0  0  0  0  0  0
   26.7153   27.6568   31.7928 H   0  0  0  0  0  0  0  0  0  0  0  0
   26.3613   25.9530   32.2111 H   0  0  0  0  0  0  0  0  0  0  0  0
   22.6918   27.3146   34.5410 H   0  0  0  0  0  0  0  0  0  0  0  0
   18.8740   27.5082   32.7020 H   0  0  0  0  0  0  0  0  0  0  0  0
   19.2813   25.7949   33.0647 H   0  0  0  0  0  0  0  0  0  0  0  0
   17.7121   27.6150   35.0122 H   0  0  0  0  0  0  0  0  0  0  0  0
   16.9119   26.6732   33.7111 H   0  0  0  0  0  0  0  0  0  0  0  0
   20.5965   24.2561   37.8177 H   0  0  0  0  0  0  0  0  0  0  0  0
   24.1353   23.7825   37.5334 H   0  0  0  0  0  0  0  0  0  0  0  0
   23.6503   24.9409   38.8398 H   0  0  0  0  0  0  0  0  0  0  0  0
   22.6827   23.4517   38.5299 H   0  0  0  0  0  0  0  0  0  0  0  0
   15.8627   24.9285   35.6187 H   0  0  0  0  0  0  0  0  0  0  0  0
   17.0704   23.5782   35.6194 H   0  0  0  0  0  0  0  0  0  0  0  0
   16.5514   24.3064   34.0618 H   0  0  0  0  0  0  0  0  0  0  0  0
  1  2  1  0
  2  3  2  0
  2  4  1  0
  4  5  2  0
  5  6  1  0
  6  7  2  0
  7  8  1  0
  8  9  2  0
  9 10  1  0
 10 11  2  0
 11 12  1  0
 12 13  2  0
 13 14  1  0
  1 15  1  0
 15 16  2  0
 16 17  1  0
 17 18  1  0
 18 19  1  0
 19 20  1  0
 20 21  1  0
 21 22  1  0
 22 23  2  0
 22 24  1  0
 24 25  1  0
 25 26  2  0
 26 27  1  0
 21 28  1  0
 13  4  1  0
 26 15  1  0
 12  7  1  0
 24 17  2  0
  1 29  1  0
  8 30  1  0
  9 31  1  0
 10 32  1  0
 11 33  1  0
 14 34  1  0
 14 35  1  0
 16 36  1  0
 19 37  1  0
 19 38  1  0
 20 39  1  0
 20 40  1  0
 25 41  1  0
 27 42  1  0
 27 43  1  0
 27 44  1  0
 28 45  1  0
 28 46  1  0
 28 47  1  0
M  END
$$$$
confid_3
     RDKit          3D

 47 50  0  0  0  0  0  0  0  0999 V2000
   24.4800   26.1000   36.1300 N   0  0  0  0  0  0  0  0  0  0  0  0
   25.2500   26.2500   34.9900 C   0  0  0  0  0  0  0  0  0  0  0  0
   24.7400   25.7600   33.9900 O   0  0  0  0  0  0  0  0  0  0  0  0
   26.5900   26.8900   34.9600 C   0  0  0  0  0  0  0  0  0  0  0  0
   27.0600   27.2400   36.1600 N   0  0  0  0  0  0  0  0  0  0  0  0
   28.3000   27.7100   36.2400 N   0  0  0  0  0  0  0  0  0  0  0  0
   29.0500   27.9600   35.1500 C   0  0  0  0  0  0  0  0  0  0  0  0
   30.3400   28.4900   35.2600 C   0  0  0  0  0  0  0  0  0  0  0  0
   31.1100   28.8200   34.1400 C   0  0  0  0  0  0  0  0  0  0  0  0
   30.5200   28.6700   32.8800 C   0  0  0  0  0  0  0  0  0  0  0  0
   29.2900   28.0200   32.7700 C   0  0  0  0  0  0  0  0  0  0  0  0
   28.5200   27.7100   33.8900 C   0  0  0  0  0  0  0  0  0  0  0  0
   27.2700   27.0800   33.7600 C   0  0  0  0  0  0  0  0  0  0  0  0
   26.7500   26.8800   32.4900 N   0  0  0  0  0  0  0  0  0  0  0  0
   23.1832   25.4606   36.2011 C   0  0  0  0  0  0  0  0  0  0  0  0
   22.1951   25.7444   35.2473 C   0  0  0  0  0  0  0  0  0  0  0  0
   20.9301   25.1427   35.2922 C   0  0  0  0  0  0  0  0  0  0  0  0
   20.0651   25.4936   34.2417 O   0  0  0  0  0  0  0  0  0  0  0  0
   18.7316   25.0516   34.0463 C   0  0  0  0  0  0  0  0  0  0  0  0
   17.9271   25.2238   35.3243 C   0  0  0  0  0  0  0  0  0  0  0  0
   18.0453   24.0092   36.1275 N   0  0  0  0  0  0  0  0  0  0  0  0
   19.3393   23.4792   36.4918 C   0  0  0  0  0  0  0  0  0  0  0  0
   19.3886   22.3350   37.0260 O   0  0  0  0  0  0  0  0  0  0  0  0
   20.6194   24.2376   36.3490 C   0  0  0  0  0  0  0  0  0  0  0  0
   21.6080   23.9923   37.3246 C   0  0  0  0  0  0  0  0  0  0  0  0
   22.8803   24.5839   37.2576 C   0  0  0  0  0  0  0  0  0  0  0  0
   23.8835   24.2982   38.3448 C   0  0  0  0  0  0  0  0  0  0  0  0
   16.8427   23.2392   36.4629 C   0  0  0  0  0  0  0  0  0  0  0  0
   24.8904   26.4181   37.0383 H   0  0  0  0  0  0  0  0  0  0  0  0
   30.7574   28.6632   36.2443 H   0  0  0  0  0  0  0  0  0  0  0  0
   32.0969   29.2502   34.2467 H   0  0  0  0  0  0  0  0  0  0  0  0
   31.0684   28.9512   31.9898 H   0  0  0  0  0  0  0  0  0  0  0  0
   28.9250   27.8616   31.7652 H   0  0  0  0  0  0  0  0  0  0  0  0
   25.7673   27.1509   32.2642 H   0  0  0  0  0  0  0  0  0  0  0  0
   27.2991   26.3789   31.7570 H   0  0  0  0  0  0  0  0  0  0  0  0
   22.3963   26.4594   34.4599 H   0  0  0  0  0  0  0  0  0  0  0  0
   18.2787   25.6682   33.2417 H   0  0  0  0  0  0  0  0  0  0  0  0
   18.7289   23.9936   33.7047 H   0  0  0  0  0  0  0  0  0  0  0  0
   18.2886   26.1010   35.9053 H   0  0  0  0  0  0  0  0  0  0  0  0
   16.8700   25.4315   35.0552 H   0  0  0  0  0  0  0  0  0  0  0  0
   21.3896   23.3270   38.1513 H   0  0  0  0  0  0  0  0  0  0  0  0
   23.5518   23.4686   39.0065 H   0  0  0  0  0  0  0  0  0  0  0  0
   24.0180   25.2023   38.9755 H   0  0  0  0  0  0  0  0  0  0  0  0
   24.8618   24.0087   37.9017 H   0  0  0  0  0  0  0  0  0  0  0  0
   15.9139   23.7409   36.1131 H   0  0  0  0  0  0  0  0  0  0  0  0
   16.8908   22.2349   35.9907 H   0  0  0  0  0  0  0  0  0  0  0  0
   16.7668   23.1217   37.5655 H   0  0  0  0  0  0  0  0  0  0  0  0
  1  2  1  0
  2  3  2  0
  2  4  1  0
  4  5  2  0
  5  6  1  0
  6  7  2  0
  7  8  1  0
  8  9  2  0
  9 10  1  0
 10 11  2  0
 11 12  1  0
 12 13  2  0
 13 14  1  0
  1 15  1  0
 15 16  2  0
 16 17  1  0
 17 18  1  0
 18 19  1  0
 19 20  1  0
 20 21  1  0
 21 22  1  0
 22 23  2  0
 22 24  1  0
 24 25  1  0
 25 26  2  0
 26 27  1  0
 21 28  1  0
 13  4  1  0
 26 15  1  0
 12  7  1  0
 24 17  2  0
  1 29  1  0
  8 30  1  0
  9 31  1  0
 10 32  1  0
 11 33  1  0
 14 34  1  0
 14 35  1  0
 16 36  1  0
 19 37  1  0
 19 38  1  0
 20 39  1  0
 20 40  1  0
 25 41  1  0
 27 42  1  0
 27 43  1  0
 27 44  1  0
 28 45  1  0
 28 46  1  0
 28 47  1  0
M  END
$$$$
confid_4
     RDKit          3D

 47 50  0  0  0  0  0  0  0  0999 V2000
   24.4800   26.1000   36.1300 N   0  0  0  0  0  0  0  0  0  0  0  0
   25.2500   26.2500   34.9900 C   0  0  0  0  0  0  0  0  0  0  0  0
   24.7400   25.7600   33.9900 O   0  0  0  0  0  0  0  0  0  0  0  0
   26.5900   26.8900   34.9600 C   0  0  0  0  0  0  0  0  0  0  0  0
   27.0600   27.2400   36.1600 N   0  0  0  0  0  0  0  0  0  0  0  0
   28.3000   27.7100   36.2400 N   0  0  0  0  0  0  0  0  0  0  0  0
   29.0500   27.9600   35.1500 C   0  0  0  0  0  0  0  0  0  0  0  0
   30.3400   28.4900   35.2600 C   0  0  0  0  0  0  0  0  0  0  0  0
   31.1100   28.8200   34.1400 C   0  0  0  0  0  0  0  0  0  0  0  0
   30.5200   28.6700   32.8800 C   0  0  0  0  0  0  0  0  0  0  0  0
   29.2900   28.0200   32.7700 C   0  0  0  0  0  0  0  0  0  0  0  0
   28.5200   27.7100   33.8900 C   0  0  0  0  0  0  0  0  0  0  0  0
   27.2700   27.0800   33.7600 C   0  0  0  0  0  0  0  0  0  0  0  0
   26.7500   26.8800   32.4900 N   0  0  0  0  0  0  0  0  0  0  0  0
   23.4103   25.1434   36.2856 C   0  0  0  0  0  0  0  0  0  0  0  0
   23.5624   23.8312   35.8150 C   0  0  0  0  0  0  0  0  0  0  0  0
   22.5550   22.8732   35.9751 C   0  0  0  0  0  0  0  0  0  0  0  0
   22.8245   21.6007   35.4591 O   0  0  0  0  0  0  0  0  0  0  0  0
   21.8882   20.7939   34.7615 C   0  0  0  0  0  0  0  0  0  0  0  0
   20.9013   20.1759   35.7288 C   0  0  0  0  0  0  0  0  0  0  0  0
   19.9118   21.1729   36.1271 N   0  0  0  0  0  0  0  0  0  0  0  0
   20.2776   22.2504   36.9998 C   0  0  0  0  0  0  0  0  0  0  0  0
   19.5904   22.4374   38.0420 O   0  0  0  0  0  0  0  0  0  0  0  0
   21.3678   23.2138   36.6761 C   0  0  0  0  0  0  0  0  0  0  0  0
   21.2335   24.5285   37.1667 C   0  0  0  0  0  0  0  0  0  0  0  0
   22.2292   25.4951   36.9665 C   0  0  0  0  0  0  0  0  0  0  0  0
   22.0326   26.8843   37.5135 C   0  0  0  0  0  0  0  0  0  0  0  0
   18.4972   20.9963   35.7885 C   0  0  0  0  0  0  0  0  0  0  0  0
   24.6698   26.7454   36.9290 H   0  0  0  0  0  0  0  0  0  0  0  0
   30.7582   28.6623   36.2441 H   0  0  0  0  0  0  0  0  0  0  0  0
   32.0993   29.2456   34.2469 H   0  0  0  0  0  0  0  0  0  0  0  0
   31.0716   28.9441   31.9898 H   0  0  0  0  0  0  0  0  0  0  0  0
   28.9436   27.8130   31.7669 H   0  0  0  0  0  0  0  0  0  0  0  0
   26.3615   25.9529   32.2112 H   0  0  0  0  0  0  0  0  0  0  0  0
   26.7154   27.6567   31.7927 H   0  0  0  0  0  0  0  0  0  0  0  0
   24.4829   23.5409   35.3235 H   0  0  0  0  0  0  0  0  0  0  0  0
   21.3652   21.3913   33.9819 H   0  0  0  0  0  0  0  0  0  0  0  0
   22.4461   19.9791   34.2525 H   0  0  0  0  0  0  0  0  0  0  0  0
   21.4308   19.7890   36.6273 H   0  0  0  0  0  0  0  0  0  0  0  0
   20.4135   19.3077   35.2339 H   0  0  0  0  0  0  0  0  0  0  0  0
   20.3378   24.8093   37.7094 H   0  0  0  0  0  0  0  0  0  0  0  0
   22.6544   27.0166   38.4239 H   0  0  0  0  0  0  0  0  0  0  0  0
   20.9702   27.0704   37.7806 H   0  0  0  0  0  0  0  0  0  0  0  0
   22.3240   27.6409   36.7544 H   0  0  0  0  0  0  0  0  0  0  0  0
   17.9129   20.7794   36.7077 H   0  0  0  0  0  0  0  0  0  0  0  0
   18.1083   21.9246   35.3186 H   0  0  0  0  0  0  0  0  0  0  0  0
   18.3487   20.1618   35.0714 H   0  0  0  0  0  0  0  0  0  0  0  0
  1  2  1  0
  2  3  2  0
  2  4  1  0
  4  5  2  0
  5  6  1  0
  6  7  2  0
  7  8  1  0
  8  9  2  0
  9 10  1  0
 10 11  2  0
 11 12  1  0
 12 13  2  0
 13 14  1  0
  1 15  1  0
 15 16  2  0
 16 17  1  0
 17 18  1  0
 18 19  1  0
 19 20  1  0
 20 21  1  0
 21 22  1  0
 22 23  2  0
 22 24  1  0
 24 25  1  0
 25 26  2  0
 26 27  1  0
 21 28  1  0
 13  4  1  0
 26 15  1  0
 12  7  1  0
 24 17  2  0
  1 29  1  0
  8 30  1  0
  9 31  1  0
 10 32  1  0
 11 33  1  0
 14 34  1  0
 14 35  1  0
 16 36  1  0
 19 37  1  0
 19 38  1  0
 20 39  1  0
 20 40  1  0
 25 41  1  0
 27 42  1  0
 27 43  1  0
 27 44  1  0
 28 45  1  0
 28 46  1  0
 28 47  1  0
M  END
$$$$
confid_5
     RDKit          3D

 47 50  0  0  0  0  0  0  0  0999 V2000
   24.4800   26.1000   36.1300 N   0  0  0  0  0  0  0  0  0  0  0  0
   25.2500   26.2500   34.9900 C   0  0  0  0  0  0  0  0  0  0  0  0
   24.7400   25.7600   33.9900 O   0  0  0  0  0  0  0  0  0  0  0  0
   26.5900   26.8900   34.9600 C   0  0  0  0  0  0  0  0  0  0  0  0
   27.0600   27.2400   36.1600 N   0  0  0  0  0  0  0  0  0  0  0  0
   28.3000   27.7100   36.2400 N   0  0  0  0  0  0  0  0  0  0  0  0
   29.0500   27.9600   35.1500 C   0  0  0  0  0  0  0  0  0  0  0  0
   30.3400   28.4900   35.2600 C   0  0  0  0  0  0  0  0  0  0  0  0
   31.1100   28.8200   34.1400 C   0  0  0  0  0  0  0  0  0  0  0  0
   30.5200   28.6700   32.8800 C   0  0  0  0  0  0  0  0  0  0  0  0
   29.2900   28.0200   32.7700 C   0  0  0  0  0  0  0  0  0  0  0  0
   28.5200   27.7100   33.8900 C   0  0  0  0  0  0  0  0  0  0  0  0
   27.2700   27.0800   33.7600 C   0  0  0  0  0  0  0  0  0  0  0  0
   26.7500   26.8800   32.4900 N   0  0  0  0  0  0  0  0  0  0  0  0
   23.4750   25.0805   36.3113 C   0  0  0  0  0  0  0  0  0  0  0  0
   23.7112   23.7720   35.8676 C   0  0  0  0  0  0  0  0  0  0  0  0
   22.7672   22.7548   36.0457 C   0  0  0  0  0  0  0  0  0  0  0  0
   23.1211   21.4931   35.5535 O   0  0  0  0  0  0  0  0  0  0  0  0
   22.2406   20.5984   34.8920 C   0  0  0  0  0  0  0  0  0  0  0  0
   21.3023   19.9499   35.8866 C   0  0  0  0  0  0  0  0  0  0  0  0
   20.2447   20.8881   36.2438 N   0  0  0  0  0  0  0  0  0  0  0  0
   20.5345   22.0095   37.0889 C   0  0  0  0  0  0  0  0  0  0  0  0
   19.8353   22.1763   38.1266 O   0  0  0  0  0  0  0  0  0  0  0  0
   21.5595   23.0331   36.7401 C   0  0  0  0  0  0  0  0  0  0  0  0
   21.3374   24.3477   37.1962 C   0  0  0  0  0  0  0  0  0  0  0  0
   22.2709   25.3712   36.9792 C   0  0  0  0  0  0  0  0  0  0  0  0
   21.9828   26.7571   37.4919 C   0  0  0  0  0  0  0  0  0  0  0  0
   18.8464   20.5234   36.0081 C   0  0  0  0  0  0  0  0  0  0  0  0
   24.6300   26.7793   36.9085 H   0  0  0  0  0  0  0  0  0  0  0  0
   30.7582   28.6624   36.2440 H   0  0  0  0  0  0  0  0  0  0  0  0
   32.0993   29.2456   34.2470 H   0  0  0  0  0  0  0  0  0  0  0  0
   31.0715   28.9441   31.9898 H   0  0  0  0  0  0  0  0  0  0  0  0
   28.9437   27.8128   31.7670 H   0  0  0  0  0  0  0  0  0  0  0  0
   26.7159   27.6565   31.7924 H   0  0  0  0  0  0  0  0  0  0  0  0
   26.3624   25.9525   32.2110 H   0  0  0  0  0  0  0  0  0  0  0  0
   24.6488   23.5324   35.3813 H   0  0  0  0  0  0  0  0  0  0  0  0
   21.6767   21.1270   34.0929 H   0  0  0  0  0  0  0  0  0  0  0  0
   22.8528   19.8062   34.4118 H   0  0  0  0  0  0  0  0  0  0  0  0
   20.8746   19.0313   35.4280 H   0  0  0  0  0  0  0  0  0  0  0  0
   21.8600   19.6394   36.7973 H   0  0  0  0  0  0  0  0  0  0  0  0
   20.4228   24.5828   37.7285 H   0  0  0  0  0  0  0  0  0  0  0  0
   22.5900   26.9511   38.4005 H   0  0  0  0  0  0  0  0  0  0  0  0
   22.2283   27.5134   36.7162 H   0  0  0  0  0  0  0  0  0  0  0  0
   20.9097   26.8801   37.7508 H   0  0  0  0  0  0  0  0  0  0  0  0
   18.2248   21.4378   35.8996 H   0  0  0  0  0  0  0  0  0  0  0  0
   18.7479   19.9362   35.0698 H   0  0  0  0  0  0  0  0  0  0  0  0
   18.4674   19.9208   36.8601 H   0  0  0  0  0  0  0  0  0  0  0  0
  1  2  1  0
  2  3  2  0
  2  4  1  0
  4  5  2  0
  5  6  1  0
  6  7  2  0
  7  8  1  0
  8  9  2  0
  9 10  1  0
 10 11  2  0
 11 12  1  0
 12 13  2  0
 13 14  1  0
  1 15  1  0
 15 16  2  0
 16 17  1  0
 17 18  1  0
 18 19  1  0
 19 20  1  0
 20 21  1  0
 21 22  1  0
 22 23  2  0
 22 24  1  0
 24 25  1  0
 25 26  2  0
 26 27  1  0
 21 28  1  0
 13  4  1  0
 26 15  1  0
 12  7  1  0
 24 17  2  0
  1 29  1  0
  8 30  1  0
  9 31  1  0
 10 32  1  0
 11 33  1  0
 14 34  1  0
 14 35  1  0
 16 36  1  0
 19 37  1  0
 19 38  1  0
 20 39  1  0
 20 40  1  0
 25 41  1  0
 27 42  1  0
 27 43  1  0
 27 44  1  0
 28 45  1  0
 28 46  1  0
 28 47  1  0
M  END
$$$$
confid_6
     RDKit          3D

 47 50  0  0  0  0  0  0  0  0999 V2000
   24.4800   26.1000   36.1300 N   0  0  0  0  0  0  0  0  0  0  0  0
   25.2500   26.2500   34.9900 C   0  0  0  0  0  0  0  0  0  0  0  0
   24.7400   25.7600   33.9900 O   0  0  0  0  0  0  0  0  0  0  0  0
   26.5900   26.8900   34.9600 C   0  0  0  0  0  0  0  0  0  0  0  0
   27.0600   27.2400   36.1600 N   0  0  0  0  0  0  0  0  0  0  0  0
   28.3000   27.7100   36.2400 N   0  0  0  0  0  0  0  0  0  0  0  0
   29.0500   27.9600   35.1500 C   0  0  0  0  0  0  0  0  0  0  0  0
   30.3400   28.4900   35.2600 C   0  0  0  0  0  0  0  0  0  0  0  0
   31.1100   28.8200   34.1400 C   0  0  0  0  0  0  0  0  0  0  0  0
   30.5200   28.6700   32.8800 C   0  0  0  0  0  0  0  0  0  0  0  0
   29.2900   28.0200   32.7700 C   0  0  0  0  0  0  0  0  0  0  0  0
   28.5200   27.7100   33.8900 C   0  0  0  0  0  0  0  0  0  0  0  0
   27.2700   27.0800   33.7600 C   0  0  0  0  0  0  0  0  0  0  0  0
   26.7500   26.8800   32.4900 N   0  0  0  0  0  0  0  0  0  0  0  0
   23.4000   25.1531   36.2756 C   0  0  0  0  0  0  0  0  0  0  0  0
   23.5407   23.8430   35.7959 C   0  0  0  0  0  0  0  0  0  0  0  0
   22.5204   22.8944   35.9313 C   0  0  0  0  0  0  0  0  0  0  0  0
   22.7938   21.6268   35.3906 O   0  0  0  0  0  0  0  0  0  0  0  0
   21.9106   20.5166   35.3244 C   0  0  0  0  0  0  0  0  0  0  0  0
   20.5640   20.9429   34.7568 C   0  0  0  0  0  0  0  0  0  0  0  0
   19.6987   21.3879   35.8482 N   0  0  0  0  0  0  0  0  0  0  0  0
   20.1621   22.3415   36.8271 C   0  0  0  0  0  0  0  0  0  0  0  0
   19.5304   22.4510   37.9149 O   0  0  0  0  0  0  0  0  0  0  0  0
   21.3114   23.2598   36.5884 C   0  0  0  0  0  0  0  0  0  0  0  0
   21.1925   24.5685   37.0964 C   0  0  0  0  0  0  0  0  0  0  0  0
   22.2141   25.5160   36.9408 C   0  0  0  0  0  0  0  0  0  0  0  0
   22.0300   26.9031   37.4968 C   0  0  0  0  0  0  0  0  0  0  0  0
   18.3662   20.7956   36.0123 C   0  0  0  0  0  0  0  0  0  0  0  0
   24.6703   26.7422   36.9310 H   0  0  0  0  0  0  0  0  0  0  0  0
   30.7582   28.6624   36.2440 H   0  0  0  0  0  0  0  0  0  0  0  0
   32.0993   29.2457   34.2470 H   0  0  0  0  0  0  0  0  0  0  0  0
   31.0717   28.9441   31.9898 H   0  0  0  0  0  0  0  0  0  0  0  0
   28.9438   27.8127   31.7670 H   0  0  0  0  0  0  0  0  0  0  0  0
   26.3613   25.9529   32.2112 H   0  0  0  0  0  0  0  0  0  0  0  0
   26.7154   27.6567   31.7927 H   0  0  0  0  0  0  0  0  0  0  0  0
   24.4667   23.5447   35.3201 H   0  0  0  0  0  0  0  0  0  0  0  0
   22.3650   19.7551   34.6554 H   0  0  0  0  0  0  0  0  0  0  0  0
   21.7996   20.0570   36.3310 H   0  0  0  0  0  0  0  0  0  0  0  0
   20.1162   20.0786   34.2193 H   0  0  0  0  0  0  0  0  0  0  0  0
   20.6907   21.7638   34.0178 H   0  0  0  0  0  0  0  0  0  0  0  0
   20.2825   24.8620   37.6074 H   0  0  0  0  0  0  0  0  0  0  0  0
   22.3159   27.6614   36.7372 H   0  0  0  0  0  0  0  0  0  0  0  0
   20.9728   27.0933   37.7804 H   0  0  0  0  0  0  0  0  0  0  0  0
   22.6652   27.0278   38.3989 H   0  0  0  0  0  0  0  0  0  0  0  0
   18.1128   20.1071   35.1786 H   0  0  0  0  0  0  0  0  0  0  0  0
   17.6009   21.6002   36.0323 H   0  0  0  0  0  0  0  0  0  0  0  0
   18.3229   20.2243   36.9637 H   0  0  0  0  0  0  0  0  0  0  0  0
  1  2  1  0
  2  3  2  0
  2  4  1  0
  4  5  2  0
  5  6  1  0
  6  7  2  0
  7  8  1  0
  8  9  2  0
  9 10  1  0
 10 11  2  0
 11 12  1  0
 12 13  2  0
 13 14  1  0
  1 15  1  0
 15 16  2  0
 16 17  1  0
 17 18  1  0
 18 19  1  0
 19 20  1  0
 20 21  1  0
 21 22  1  0
 22 23  2  0
 22 24  1  0
 24 25  1  0
 25 26  2  0
 26 27  1  0
 21 28  1  0
 13  4  1  0
 26 15  1  0
 12  7  1  0
 24 17  2  0
  1 29  1  0
  8 30  1  0
  9 31  1  0
 10 32  1  0
 11 33  1  0
 14 34  1  0
 14 35  1  0
 16 36  1  0
 19 37  1  0
 19 38  1  0
 20 39  1  0
 20 40  1  0
 25 41  1  0
 27 42  1  0
 27 43  1  0
 27 44  1  0
 28 45  1  0
 28 46  1  0
 28 47  1  0
M  END
$$$$
