confid_0
     RDKit          3D

 47 50  0  0  0  0  0  0  0  0999 V2000
   24.2000   26.2400   35.6900 N   0  0  0  0  0  0  0  0  0  0  0  0
   24.8500   26.2800   34.4800 C   0  0  0  0  0  0  0  0  0  0  0  0
   24.3100   25.7400   33.5400 O   0  0  0  0  0  0  0  0  0  0  0  0
   26.1800   26.9700   34.4700 C   0  0  0  0  0  0  0  0  0  0  0  0
   26.6500   27.6000   35.5500 N   0  0  0  0  0  0  0  0  0  0  0  0
   27.7900   28.2700   35.6200 N   0  0  0  0  0  0  0  0  0  0  0  0
   28.5400   28.3000   34.5100 C   0  0  0  0  0  0  0  0  0  0  0  0
   29.7700   28.9400   34.5600 C   0  0  0  0  0  0  0  0  0  0  0  0
   30.7000   28.8900   33.5000 C   0  0  0  0  0  0  0  0  0  0  0  0
   30.3700   28.1400   32.3700 C   0  0  0  0  0  0  0  0  0  0  0  0
   29.1200   27.5200   32.2800 C   0  0  0  0  0  0  0  0  0  0  0  0
   28.2100   27.6100   33.3300 C   0  0  0  0  0  0  0  0  0  0  0  0
   26.9700   26.9700   33.3100 C   0  0  0  0  0  0  0  0  0  0  0  0
   26.5300   26.2400   32.2200 N   0  0  0  0  0  0  0  0  0  0  0  0
   22.7695   26.1202   35.8326 C   0  0  0  0  0  0  0  0  0  0  0  0
   21.9539   26.3270   34.7526 N   0  0  0  0  0  0  0  0  0  0  0  0
   20.6083   26.2345   34.8811 C   0  0  0  0  0  0  0  0  0  0  0  0
   19.5900   26.4270   33.8141 C   0  0  0  0  0  0  0  0  0  0  0  0
   18.2517   26.1995   34.5657 C   0  0  0  0  0  0  0  0  0  0  0  0
   18.6157   25.9092   35.9536 N   0  0  0  0  0  0  0  0  0  0  0  0
   20.0248   25.9454   36.0724 C   0  0  0  0  0  0  0  0  0  0  0  0
   20.7927   25.7315   37.2135 C   0  0  0  0  0  0  0  0  0  0  0  0
   22.1999   25.8168   37.0994 C   0  0  0  0  0  0  0  0  0  0  0  0
   23.0534   25.6147   38.1984 O   0  0  0  0  0  0  0  0  0  0  0  0
   22.6484   25.1952   39.5015 C   0  0  0  0  0  0  0  0  0  0  0  0
   22.3243   23.7052   39.5135 C   0  0  0  0  0  0  0  0  0  0  0  0
   17.6730   25.6267   37.0291 C   0  0  0  0  0  0  0  0  0  0  0  0
   24.7714   26.2933   36.5632 H   0  0  0  0  0  0  0  0  0  0  0  0
   30.0498   29.4792   35.4573 H   0  0  0  0  0  0  0  0  0  0  0  0
   31.6569   29.3901   33.5753 H   0  0  0  0  0  0  0  0  0  0  0  0
   31.0715   28.0646   31.5492 H   0  0  0  0  0  0  0  0  0  0  0  0
   28.8856   26.9764   31.3746 H   0  0  0  0  0  0  0  0  0  0  0  0
   27.1524   25.5359   31.7654 H   0  0  0  0  0  0  0  0  0  0  0  0
   25.6751   26.5393   31.7004 H   0  0  0  0  0  0  0  0  0  0  0  0
   19.7299   25.6758   33.0076 H   0  0  0  0  0  0  0  0  0  0  0  0
   19.6501   27.4583   33.4055 H   0  0  0  0  0  0  0  0  0  0  0  0
   17.6192   27.1124   34.5238 H   0  0  0  0  0  0  0  0  0  0  0  0
   17.7007   25.3377   34.1313 H   0  0  0  0  0  0  0  0  0  0  0  0
   20.3052   25.5103   38.1515 H   0  0  0  0  0  0  0  0  0  0  0  0
   23.4911   25.3746   40.2018 H   0  0  0  0  0  0  0  0  0  0  0  0
   21.7861   25.7947   39.8620 H   0  0  0  0  0  0  0  0  0  0  0  0
   23.2103   23.1238   39.1814 H   0  0  0  0  0  0  0  0  0  0  0  0
   21.4729   23.4817   38.8385 H   0  0  0  0  0  0  0  0  0  0  0  0
   22.0540   23.3910   40.5435 H   0  0  0  0  0  0  0  0  0  0  0  0
   17.7854   26.3844   37.8325 H   0  0  0  0  0  0  0  0  0  0  0  0
   16.6312   25.6602   36.6462 H   0  0  0  0  0  0  0  0  0  0  0  0
   17.8716   24.6164   37.4437 H   0  0  0  0  0  0  0  0  0  0  0  0
  1  2  1  0
  2  3  2  0
  2  4  1  0
  4  5  2  0
  5  6  1  0
  6  7  2  0
  7  8  1  0
  8  9  2  0
  9 10  1  0
 10 11  2  0
 11 12  1  0
 12 13  2  0
 13 14  1  0
  1 15  1  0
 15 16  2  0
 16 17  1  0
 17 18  1  0
 18 19  1  0
 19 20  1  0
 20 21  1  0
 21 22  1  0
 22 23  2  0
 23 24  1  0
 24 25  1  0
 25 26  1  0
 20 27  1  0
 13  4  1  0
 23 15  1  0
 12  7  1  0
 21 17  2  0
  1 28  1  0
  8 29  1  0
  9 30  1  0
 10 31  1  0
 11 32  1  0
 14 33  1  0
 14 34  1  0
 18 35  1  0
 18 36  1  0
 19 37  1  0
 19 38  1  0
 22 39  1  0
 25 40  1  0
 25 41  1  0
 26 42  1  0
 26 43  1  0
 26 44  1  0
 27 45  1  0
 27 46  1  0
 27 47  1  0
M  END
$$$$
confid_1
     RDKit          3D

 47 50  0  0  0  0  0  0  0  0999 V2000
   24.2000   26.2400   35.6900 N   0  0  0  0  0  0  0  0  0  0  0  0
   24.8500   26.2800   34.4800 C   0  0  0  0  0  0  0  0  0  0  0  0
   24.3100   25.7400   33.5400 O   0  0  0  0  0  0  0  0  0  0  0  0
   26.1800   26.9700   34.4700 C   0  0  0  0  0  0  0  0  0  0  0  0
   26.6500   27.6000   35.5500 N   0  0  0  0  0  0  0  0  0  0  0  0
   27.7900   28.2700   35.6200 N   0  0  0  0  0  0  0  0  0  0  0  0
   28.5400   28.3000   34.5100 C   0  0  0  0  0  0  0  0  0  0  0  0
   29.7700   28.9400   34.5600 C   0  0  0  0  0  0  0  0  0  0  0  0
   30.7000   28.8900   33.5000 C   0  0  0  0  0  0  0  0  0  0  0  0
   30.3700   28.1400   32.3700 C   0  0  0  0  0  0  0  0  0  0  0  0
   29.1200   27.5200   32.2800 C   0  0  0  0  0  0  0  0  0  0  0  0
   28.2100   27.6100   33.3300 C   0  0  0  0  0  0  0  0  0  0  0  0
   26.9700   26.9700   33.3100 C   0  0  0  0  0  0  0  0  0  0  0  0
   26.5300   26.2400   32.2200 N   0  0  0  0  0  0  0  0  0  0  0  0
   23.2563   25.2149   36.0650 C   0  0  0  0  0  0  0  0  0  0  0  0
   23.1710   24.0611   35.3329 N   0  0  0  0  0  0  0  0  0  0  0  0
   22.3041   23.0832   35.6908 C   0  0  0  0  0  0  0  0  0  0  0  0
   22.0925   21.7786   35.0087 C   0  0  0  0  0  0  0  0  0  0  0  0
   21.0009   21.1037   35.8808 C   0  0  0  0  0  0  0  0  0  0  0  0
   20.6935   22.0576   36.9477 N   0  0  0  0  0  0  0  0  0  0  0  0
   21.5008   23.2066   36.7782 C   0  0  0  0  0  0  0  0  0  0  0  0
   21.5394   24.3496   37.5719 C   0  0  0  0  0  0  0  0  0  0  0  0
   22.4399   25.3813   37.2171 C   0  0  0  0  0  0  0  0  0  0  0  0
   22.5444   26.5708   37.9593 O   0  0  0  0  0  0  0  0  0  0  0  0
   21.8923   26.8380   39.2010 C   0  0  0  0  0  0  0  0  0  0  0  0
   22.5700   26.0844   40.3404 C   0  0  0  0  0  0  0  0  0  0  0  0
   19.7240   21.8424   38.0150 C   0  0  0  0  0  0  0  0  0  0  0  0
   24.3933   26.9957   36.3851 H   0  0  0  0  0  0  0  0  0  0  0  0
   30.0498   29.4792   35.4573 H   0  0  0  0  0  0  0  0  0  0  0  0
   31.6569   29.3901   33.5753 H   0  0  0  0  0  0  0  0  0  0  0  0
   31.0715   28.0646   31.5492 H   0  0  0  0  0  0  0  0  0  0  0  0
   28.8856   26.9763   31.3746 H   0  0  0  0  0  0  0  0  0  0  0  0
   25.6751   26.5392   31.7004 H   0  0  0  0  0  0  0  0  0  0  0  0
   27.1523   25.5357   31.7655 H   0  0  0  0  0  0  0  0  0  0  0  0
   23.0316   21.1853   35.0115 H   0  0  0  0  0  0  0  0  0  0  0  0
   21.7328   21.9405   33.9702 H   0  0  0  0  0  0  0  0  0  0  0  0
   21.3818   20.1564   36.3194 H   0  0  0  0  0  0  0  0  0  0  0  0
   20.0885   20.9014   35.2795 H   0  0  0  0  0  0  0  0  0  0  0  0
   20.8886   24.4260   38.4303 H   0  0  0  0  0  0  0  0  0  0  0  0
   20.8118   26.5888   39.1443 H   0  0  0  0  0  0  0  0  0  0  0  0
   21.9698   27.9261   39.4074 H   0  0  0  0  0  0  0  0  0  0  0  0
   22.4970   24.9884   40.1854 H   0  0  0  0  0  0  0  0  0  0  0  0
   22.0788   26.3420   41.3023 H   0  0  0  0  0  0  0  0  0  0  0  0
   23.6417   26.3701   40.3963 H   0  0  0  0  0  0  0  0  0  0  0  0
   19.2414   20.8488   37.9016 H   0  0  0  0  0  0  0  0  0  0  0  0
   20.2368   21.8831   38.9987 H   0  0  0  0  0  0  0  0  0  0  0  0
   18.9420   22.6290   37.9732 H   0  0  0  0  0  0  0  0  0  0  0  0
  1  2  1  0
  2  3  2  0
  2  4  1  0
  4  5  2  0
  5  6  1  0
  6  7  2  0
  7  8  1  0
  8  9  2  0
  9 10  1  0
 10 11  2  0
 11 12  1  0
 12 13  2  0
 13 14  1  0
  1 15  1  0
 15 16  2  0
 16 17  1  0
 17 18  1  0
 18 19  1  0
 19 20  1  0
 20 21  1  0
 21 22  1  0
 22 23  2  0
 23 24  1  0
 24 25  1  0
 25 26  1  0
 20 27  1  0
 13  4  1  0
 23 15  1  0
 12  7  1  0
 21 17  2  0
  1 28  1  0
  8 29  1  0
  9 30  1  0
 10 31  1  0
 11 32  1  0
 14 33  1  0
 14 34  1  0
 18 35  1  0
 18 36  1  0
 19 37  1  0
 19 38  1  0
 22 39  1  0
 25 40  1  0
 25 41  1  0
 26 42  1  0
 26 43  1  0
 26 44  1  0
 27 45  1  0
 27 46  1  0
 27 47  1  0
M  END
$$$$
confid_2
     RDKit          3D

 47 50  0  0  0  0  0  0  0  0999 V2000
   24.2000   26.2400   35.6900 N   0  0  0  0  0  0  0  0  0  0  0  0
   24.8500   26.2800   34.4800 C   0  0  0  0  0  0  0  0  0  0  0  0
   24.3100   25.7400   33.5400 O   0  0  0  0  0  0  0  0  0  0  0  0
   26.1800   26.9700   34.4700 C   0  0  0  0  0  0  0  0  0  0  0  0
   26.6500   27.6000   35.5500 N   0  0  0  0  0  0  0  0  0  0  0  0
   27.7900   28.2700   35.6200 N   0  0  0  0  0  0  0  0  0  0  0  0
   28.5400   28.3000   34.5100 C   0  0  0  0  0  0  0  0  0  0  0  0
   29.7700   28.9400   34.5600 C   0  0  0  0  0  0  0  0  0  0  0  0
   30.7000   28.8900   33.5000 C   0  0  0  0  0  0  0  0  0  0  0  0
   30.3700   28.1400   32.3700 C   0  0  0  0  0  0  0  0  0  0  0  0
   29.1200   27.5200   32.2800 C   0  0  0  0  0  0  0  0  0  0  0  0
   28.2100   27.6100   33.3300 C   0  0  0  0  0  0  0  0  0  0  0  0
   26.9700   26.9700   33.3100 C   0  0  0  0  0  0  0  0  0  0  0  0
   26.5300   26.2400   32.2200 N   0  0  0  0  0  0  0  0  0  0  0  0
   22.7694   26.1220   35.8323 C   0  0  0  0  0  0  0  0  0  0  0  0
   21.9542   26.3322   34.7527 N   0  0  0  0  0  0  0  0  0  0  0  0
   20.6082   26.2450   34.8817 C   0  0  0  0  0  0  0  0  0  0  0  0
   19.5903   26.4410   33.8150 C   0  0  0  0  0  0  0  0  0  0  0  0
   18.2516   26.2163   34.5666 C   0  0  0  0  0  0  0  0  0  0  0  0
   18.6151   25.9214   35.9536 N   0  0  0  0  0  0  0  0  0  0  0  0
   20.0242   25.9546   36.0725 C   0  0  0  0  0  0  0  0  0  0  0  0
   20.7918   25.7348   37.2127 C   0  0  0  0  0  0  0  0  0  0  0  0
   22.1990   25.8238   37.0999 C   0  0  0  0  0  0  0  0  0  0  0  0
   23.0523   25.6141   38.1976 O   0  0  0  0  0  0  0  0  0  0  0  0
   22.6376   25.4203   39.5499 C   0  0  0  0  0  0  0  0  0  0  0  0
   22.1930   26.7389   40.1735 C   0  0  0  0  0  0  0  0  0  0  0  0
   17.6716   25.6448   37.0301 C   0  0  0  0  0  0  0  0  0  0  0  0
   24.7711   26.2950   36.5634 H   0  0  0  0  0  0  0  0  0  0  0  0
   30.0498   29.4792   35.4573 H   0  0  0  0  0  0  0  0  0  0  0  0
   31.6569   29.3901   33.5753 H   0  0  0  0  0  0  0  0  0  0  0  0
   31.0715   28.0646   31.5492 H   0  0  0  0  0  0  0  0  0  0  0  0
   28.8856   26.9764   31.3746 H   0  0  0  0  0  0  0  0  0  0  0  0
   25.6751   26.5393   31.7004 H   0  0  0  0  0  0  0  0  0  0  0  0
   27.1524   25.5359   31.7654 H   0  0  0  0  0  0  0  0  0  0  0  0
   19.6531   27.4724   33.4071 H   0  0  0  0  0  0  0  0  0  0  0  0
   19.7281   25.6900   33.0080 H   0  0  0  0  0  0  0  0  0  0  0  0
   17.6225   27.1317   34.5271 H   0  0  0  0  0  0  0  0  0  0  0  0
   17.6971   25.3576   34.1304 H   0  0  0  0  0  0  0  0  0  0  0  0
   20.3046   25.5014   38.1478 H   0  0  0  0  0  0  0  0  0  0  0  0
   21.8336   24.6570   39.6136 H   0  0  0  0  0  0  0  0  0  0  0  0
   23.5045   25.0359   40.1274 H   0  0  0  0  0  0  0  0  0  0  0  0
   23.0213   27.4770   40.1256 H   0  0  0  0  0  0  0  0  0  0  0  0
   21.9190   26.5746   41.2368 H   0  0  0  0  0  0  0  0  0  0  0  0
   21.3124   27.1502   39.6389 H   0  0  0  0  0  0  0  0  0  0  0  0
   16.6296   25.6875   36.6487 H   0  0  0  0  0  0  0  0  0  0  0  0
   17.8624   24.6320   37.4425 H   0  0  0  0  0  0  0  0  0  0  0  0
   17.7915   26.4000   37.8347 H   0  0  0  0  0  0  0  0  0  0  0  0
  1  2  1  0
  2  3  2  0
  2  4  1  0
  4  5  2  0
  5  6  1  0
  6  7  2  0
  7  8  1  0
  8  9  2  0
  9 10  1  0
 10 11  2  0
 11 12  1  0
 12 13  2  0
 13 14  1  0
  1 15  1  0
 15 16  2  0
 16 17  1  0
 17 18  1  0
 18 19  1  0
 19 20  1  0
 20 21  1  0
 21 22  1  0
 22 23  2  0
 23 24  1  0
 24 25  1  0
 25 26  1  0
 20 27  1  0
 13  4  1  0
 23 15  1  0
 12  7  1  0
 21 17  2  0
  1 28  1  0
  8 29  1  0
  9 30  1  0
 10 31  1  0
 11 32  1  0
 14 33  1  0
 14 34  1  0
 18 35  1  0
 18 36  1  0
 19 37  1  0
 19 38  1  0
 22 39  1  0
 25 40  1  0
 25 41  1  0
 26 42  1  0
 26 43  1  0
 26 44  1  0
 27 45  1  0
 27 46  1  0
 27 47  1  0
M  END
$$$$
confid_3
     RDKit          3D

 47 50  0  0  0  0  0  0  0  0999 V2000
   24.2000   26.2400   35.6900 N   0  0  0  0  0  0  0  0  0  0  0  0
   24.8500   26.2800   34.4800 C   0  0  0  0  0  0  0  0  0  0  0  0
   24.3100   25.7400   33.5400 O   0  0  0  0  0  0  0  0  0  0  0  0
   26.1800   26.9700   34.4700 C   0  0  0  0  0  0  0  0  0  0  0  0
   26.6500   27.6000   35.5500 N   0  0  0  0  0  0  0  0  0  0  0  0
   27.7900   28.2700   35.6200 N   0  0  0  0  0  0  0  0  0  0  0  0
   28.5400   28.3000   34.5100 C   0  0  0  0  0  0  0  0  0  0  0  0
   29.7700   28.9400   34.5600 C   0  0  0  0  0  0  0  0  0  0  0  0
   30.7000   28.8900   33.5000 C   0  0  0  0  0  0  0  0  0  0  0  0
   30.3700   28.1400   32.3700 C   0  0  0  0  0  0  0  0  0  0  0  0
   29.1200   27.5200   32.2800 C   0  0  0  0  0  0  0  0  0  0  0  0
   28.2100   27.6100   33.3300 C   0  0  0  0  0  0  0  0  0  0  0  0
   26.9700   26.9700   33.3100 C   0  0  0  0  0  0  0  0  0  0  0  0
   26.5300   26.2400   32.2200 N   0  0  0  0  0  0  0  0  0  0  0  0
   22.7697   26.1185   35.8332 C   0  0  0  0  0  0  0  0  0  0  0  0
   21.9528   26.3160   34.7523 N   0  0  0  0  0  0  0  0  0  0  0  0
   20.6071   26.2231   34.8830 C   0  0  0  0  0  0  0  0  0  0  0  0
   19.5876   26.4075   33.8159 C   0  0  0  0  0  0  0  0  0  0  0  0
   18.2502   26.1839   34.5704 C   0  0  0  0  0  0  0  0  0  0  0  0
   18.6158   25.9032   35.9599 N   0  0  0  0  0  0  0  0  0  0  0  0
   20.0248   25.9412   36.0771 C   0  0  0  0  0  0  0  0  0  0  0  0
   20.7944   25.7361   37.2189 C   0  0  0  0  0  0  0  0  0  0  0  0
   22.2005   25.8271   37.1024 C   0  0  0  0  0  0  0  0  0  0  0  0
   23.0482   25.6336   38.2045 O   0  0  0  0  0  0  0  0  0  0  0  0
   22.6014   25.3390   39.5252 C   0  0  0  0  0  0  0  0  0  0  0  0
   23.8020   25.2061   40.4480 C   0  0  0  0  0  0  0  0  0  0  0  0
   17.6741   25.6283   37.0384 C   0  0  0  0  0  0  0  0  0  0  0  0
   24.7710   26.2967   36.5634 H   0  0  0  0  0  0  0  0  0  0  0  0
   30.0498   29.4792   35.4573 H   0  0  0  0  0  0  0  0  0  0  0  0
   31.6569   29.3901   33.5753 H   0  0  0  0  0  0  0  0  0  0  0  0
   31.0715   28.0646   31.5492 H   0  0  0  0  0  0  0  0  0  0  0  0
   28.8856   26.9764   31.3746 H   0  0  0  0  0  0  0  0  0  0  0  0
   27.1524   25.5358   31.7655 H   0  0  0  0  0  0  0  0  0  0  0  0
   25.6751   26.5393   31.7004 H   0  0  0  0  0  0  0  0  0  0  0  0
   19.7272   25.6511   33.0143 H   0  0  0  0  0  0  0  0  0  0  0  0
   19.6464   27.4361   33.4005 H   0  0  0  0  0  0  0  0  0  0  0  0
   17.6993   25.3188   34.1423 H   0  0  0  0  0  0  0  0  0  0  0  0
   17.6169   27.0960   34.5230 H   0  0  0  0  0  0  0  0  0  0  0  0
   20.3136   25.5148   38.1615 H   0  0  0  0  0  0  0  0  0  0  0  0
   22.0339   24.3832   39.5264 H   0  0  0  0  0  0  0  0  0  0  0  0
   21.9485   26.1596   39.8939 H   0  0  0  0  0  0  0  0  0  0  0  0
   23.4593   24.9767   41.4790 H   0  0  0  0  0  0  0  0  0  0  0  0
   24.4623   24.3854   40.0958 H   0  0  0  0  0  0  0  0  0  0  0  0
   24.3769   26.1564   40.4615 H   0  0  0  0  0  0  0  0  0  0  0  0
   16.6318   25.6625   36.6571 H   0  0  0  0  0  0  0  0  0  0  0  0
   17.7897   26.3897   37.8379 H   0  0  0  0  0  0  0  0  0  0  0  0
   17.8709   24.6196   37.4578 H   0  0  0  0  0  0  0  0  0  0  0  0
  1  2  1  0
  2  3  2  0
  2  4  1  0
  4  5  2  0
  5  6  1  0
  6  7  2  0
  7  8  1  0
  8  9  2  0
  9 10  1  0
 10 11  2  0
 11 12  1  0
 12 13  2  0
 13 14  1  0
  1 15  1  0
 15 16  2  0
 16 17  1  0
 17 18  1  0
 18 19  1  0
 19 20  1  0
 20 21  1  0
 21 22  1  0
 22 23  2  0
 23 24  1  0
 24 25  1  0
 25 26  1  0
 20 27  1  0
 13  4  1  0
 23 15  1  0
 12  7  1  0
 21 17  2  0
  1 28  1  0
  8 29  1  0
  9 30  1  0
 10 31  1  0
 11 32  1  0
 14 33  1  0
 14 34  1  0
 18 35  1  0
 18 36  1  0
 19 37  1  0
 19 38  1  0
 22 39  1  0
 25 40  1  0
 25 41  1  0
 26 42  1  0
 26 43  1  0
 26 44  1  0
 27 45  1  0
 27 46  1  0
 27 47  1  0
M  END
$$$$
confid_4
     RDKit          3D

 47 50  0  0  0  0  0  0  0  0999 V2000
   24.2000   26.2400   35.6900 N   0  0  0  0  0  0  0  0  0  0  0  0
   24.8500   26.2800   34.4800 C   0  0  0  0  0  0  0  0  0  0  0  0
   24.3100   25.7400   33.5400 O   0  0  0  0  0  0  0  0  0  0  0  0
   26.1800   26.9700   34.4700 C   0  0  0  0  0  0  0  0  0  0  0  0
   26.6500   27.6000   35.5500 N   0  0  0  0  0  0  0  0  0  0  0  0
   27.7900   28.2700   35.6200 N   0  0  0  0  0  0  0  0  0  0  0  0
   28.5400   28.3000   34.5100 C   0  0  0  0  0  0  0  0  0  0  0  0
   29.7700   28.9400   34.5600 C   0  0  0  0  0  0  0  0  0  0  0  0
   30.7000   28.8900   33.5000 C   0  0  0  0  0  0  0  0  0  0  0  0
   30.3700   28.1400   32.3700 C   0  0  0  0  0  0  0  0  0  0  0  0
   29.1200   27.5200   32.2800 C   0  0  0  0  0  0  0  0  0  0  0  0
   28.2100   27.6100   33.3300 C   0  0  0  0  0  0  0  0  0  0  0  0
   26.9700   26.9700   33.3100 C   0  0  0  0  0  0  0  0  0  0  0  0
   26.5300   26.2400   32.2200 N   0  0  0  0  0  0  0  0  0  0  0  0
   23.2737   25.2015   36.0714 C   0  0  0  0  0  0  0  0  0  0  0  0
   23.2046   24.0435   35.3445 N   0  0  0  0  0  0  0  0  0  0  0  0
   22.3549   23.0528   35.7099 C   0  0  0  0  0  0  0  0  0  0  0  0
   22.1608   21.7427   35.0330 C   0  0  0  0  0  0  0  0  0  0  0  0
   21.0843   21.0534   35.9127 C   0  0  0  0  0  0  0  0  0  0  0  0
   20.7693   22.0044   36.9803 N   0  0  0  0  0  0  0  0  0  0  0  0
   21.5564   23.1661   36.8025 C   0  0  0  0  0  0  0  0  0  0  0  0
   21.5791   24.3132   37.5906 C   0  0  0  0  0  0  0  0  0  0  0  0
   22.4575   25.3589   37.2240 C   0  0  0  0  0  0  0  0  0  0  0  0
   22.5420   26.5482   37.9652 O   0  0  0  0  0  0  0  0  0  0  0  0
   21.7896   26.8195   39.1446 C   0  0  0  0  0  0  0  0  0  0  0  0
   22.1436   28.2031   39.6646 C   0  0  0  0  0  0  0  0  0  0  0  0
   19.8036   21.7798   38.0490 C   0  0  0  0  0  0  0  0  0  0  0  0
   24.3840   27.0022   36.3809 H   0  0  0  0  0  0  0  0  0  0  0  0
   30.0499   29.4792   35.4573 H   0  0  0  0  0  0  0  0  0  0  0  0
   31.6569   29.3900   33.5753 H   0  0  0  0  0  0  0  0  0  0  0  0
   31.0715   28.0645   31.5492 H   0  0  0  0  0  0  0  0  0  0  0  0
   28.8856   26.9763   31.3746 H   0  0  0  0  0  0  0  0  0  0  0  0
   27.1523   25.5355   31.7657 H   0  0  0  0  0  0  0  0  0  0  0  0
   25.6752   26.5393   31.7002 H   0  0  0  0  0  0  0  0  0  0  0  0
   23.1096   21.1644   35.0332 H   0  0  0  0  0  0  0  0  0  0  0  0
   21.7936   21.8956   33.9956 H   0  0  0  0  0  0  0  0  0  0  0  0
   21.4808   20.1120   36.3501 H   0  0  0  0  0  0  0  0  0  0  0  0
   20.1717   20.8377   35.3168 H   0  0  0  0  0  0  0  0  0  0  0  0
   20.9372   24.3854   38.4574 H   0  0  0  0  0  0  0  0  0  0  0  0
   20.7032   26.7854   38.9143 H   0  0  0  0  0  0  0  0  0  0  0  0
   22.0279   26.0651   39.9251 H   0  0  0  0  0  0  0  0  0  0  0  0
   21.9031   28.9693   38.8970 H   0  0  0  0  0  0  0  0  0  0  0  0
   21.5615   28.4185   40.5853 H   0  0  0  0  0  0  0  0  0  0  0  0
   23.2268   28.2532   39.9030 H   0  0  0  0  0  0  0  0  0  0  0  0
   19.0158   22.5606   38.0104 H   0  0  0  0  0  0  0  0  0  0  0  0
   19.3281   20.7828   37.9346 H   0  0  0  0  0  0  0  0  0  0  0  0
   20.3181   21.8219   39.0319 H   0  0  0  0  0  0  0  0  0  0  0  0
  1  2  1  0
  2  3  2  0
  2  4  1  0
  4  5  2  0
  5  6  1  0
  6  7  2  0
  7  8  1  0
  8  9  2  0
  9 10  1  0
 10 11  2  0
 11 12  1  0
 12 13  2  0
 13 14  1  0
  1 15  1  0
 15 16  2  0
 16 17  1  0
 17 18  1  0
 18 19  1  0
 19 20  1  0
 20 21  1  0
 21 22  1  0
 22 23  2  0
 23 24  1  0
 24 25  1  0
 25 26  1  0
 20 27  1  0
 13  4  1  0
 23 15  1  0
 12  7  1  0
 21 17  2  0
  1 28  1  0
  8 29  1  0
  9 30  1  0
 10 31  1  0
 11 32  1  0
 14 33  1  0
 14 34  1  0
 18 35  1  0
 18 36  1  0
 19 37  1  0
 19 38  1  0
 22 39  1  0
 25 40  1  0
 25 41  1  0
 26 42  1  0
 26 43  1  0
 26 44  1  0
 27 45  1  0
 27 46  1  0
 27 47  1  0
M  END
$$$$
confid_5
     RDKit          3D

 47 50  0  0  0  0  0  0  0  0999 V2000
   24.2000   26.2400   35.6900 N   0  0  0  0  0  0  0  0  0  0  0  0
   24.8500   26.2800   34.4800 C   0  0  0  0  0  0  0  0  0  0  0  0
   24.3100   25.7400   33.5400 O   0  0  0  0  0  0  0  0  0  0  0  0
   26.1800   26.9700   34.4700 C   0  0  0  0  0  0  0  0  0  0  0  0
   26.6500   27.6000   35.5500 N   0  0  0  0  0  0  0  0  0  0  0  0
   27.7900   28.2700   35.6200 N   0  0  0  0  0  0  0  0  0  0  0  0
   28.5400   28.3000   34.5100 C   0  0  0  0  0  0  0  0  0  0  0  0
   29.7700   28.9400   34.5600 C   0  0  0  0  0  0  0  0  0  0  0  0
   30.7000   28.8900   33.5000 C   0  0  0  0  0  0  0  0  0  0  0  0
   30.3700   28.1400   32.3700 C   0  0  0  0  0  0  0  0  0  0  0  0
   29.1200   27.5200   32.2800 C   0  0  0  0  0  0  0  0  0  0  0  0
   28.2100   27.6100   33.3300 C   0  0  0  0  0  0  0  0  0  0  0  0
   26.9700   26.9700   33.3100 C   0  0  0  0  0  0  0  0  0  0  0  0
   26.5300   26.2400   32.2200 N   0  0  0  0  0  0  0  0  0  0  0  0
   23.2528   25.2176   36.0625 C   0  0  0  0  0  0  0  0  0  0  0  0
   23.1756   24.0587   35.3379 N   0  0  0  0  0  0  0  0  0  0  0  0
   22.3026   23.0848   35.6917 C   0  0  0  0  0  0  0  0  0  0  0  0
   22.0961   21.7763   35.0153 C   0  0  0  0  0  0  0  0  0  0  0  0
   20.9903   21.1105   35.8764 C   0  0  0  0  0  0  0  0  0  0  0  0
   20.6768   22.0693   36.9373 N   0  0  0  0  0  0  0  0  0  0  0  0
   21.4880   23.2158   36.7699 C   0  0  0  0  0  0  0  0  0  0  0  0
   21.5193   24.3638   37.5566 C   0  0  0  0  0  0  0  0  0  0  0  0
   22.4188   25.3956   37.2001 C   0  0  0  0  0  0  0  0  0  0  0  0
   22.5171   26.5897   37.9357 O   0  0  0  0  0  0  0  0  0  0  0  0
   21.6774   26.9677   39.0267 C   0  0  0  0  0  0  0  0  0  0  0  0
   20.3097   27.4188   38.5254 C   0  0  0  0  0  0  0  0  0  0  0  0
   19.6854   21.8680   37.9871 C   0  0  0  0  0  0  0  0  0  0  0  0
   24.3929   26.9956   36.3853 H   0  0  0  0  0  0  0  0  0  0  0  0
   30.0500   29.4789   35.4574 H   0  0  0  0  0  0  0  0  0  0  0  0
   31.6575   29.3889   33.5759 H   0  0  0  0  0  0  0  0  0  0  0  0
   31.0739   28.0595   31.5517 H   0  0  0  0  0  0  0  0  0  0  0  0
   28.8953   26.9543   31.3856 H   0  0  0  0  0  0  0  0  0  0  0  0
   26.6266   26.6229   31.2535 H   0  0  0  0  0  0  0  0  0  0  0  0
   26.3232   25.2206   32.3144 H   0  0  0  0  0  0  0  0  0  0  0  0
   23.0333   21.1800   35.0353 H   0  0  0  0  0  0  0  0  0  0  0  0
   21.7517   21.9323   33.9706 H   0  0  0  0  0  0  0  0  0  0  0  0
   20.0836   20.9138   35.2647 H   0  0  0  0  0  0  0  0  0  0  0  0
   21.3592   20.1614   36.3215 H   0  0  0  0  0  0  0  0  0  0  0  0
   20.8671   24.4416   38.4139 H   0  0  0  0  0  0  0  0  0  0  0  0
   22.1547   27.8207   39.5533 H   0  0  0  0  0  0  0  0  0  0  0  0
   21.5809   26.1391   39.7597 H   0  0  0  0  0  0  0  0  0  0  0  0
   19.7861   26.5887   38.0085 H   0  0  0  0  0  0  0  0  0  0  0  0
   19.6892   27.7513   39.3839 H   0  0  0  0  0  0  0  0  0  0  0  0
   20.4282   28.2666   37.8180 H   0  0  0  0  0  0  0  0  0  0  0  0
   19.1969   20.8777   37.8701 H   0  0  0  0  0  0  0  0  0  0  0  0
   18.9107   22.6608   37.9258 H   0  0  0  0  0  0  0  0  0  0  0  0
   20.1795   21.9104   38.9802 H   0  0  0  0  0  0  0  0  0  0  0  0
  1  2  1  0
  2  3  2  0
  2  4  1  0
  4  5  2  0
  5  6  1  0
  6  7  2  0
  7  8  1  0
  8  9  2  0
  9 10  1  0
 10 11  2  0
 11 12  1  0
 12 13  2  0
 13 14  1  0
  1 15  1  0
 15 16  2  0
 16 17  1  0
 17 18  1  0
 18 19  1  0
 19 20  1  0
 20 21  1  0
 21 22  1  0
 22 23  2  0
 23 24  1  0
 24 25  1  0
 25 26  1  0
 20 27  1  0
 13  4  1  0
 23 15  1  0
 12  7  1  0
 21 17  2  0
  1 28  1  0
  8 29  1  0
  9 30  1  0
 10 31  1  0
 11 32  1  0
 14 33  1  0
 14 34  1  0
 18 35  1  0
 18 36  1  0
 19 37  1  0
 19 38  1  0
 22 39  1  0
 25 40  1  0
 25 41  1  0
 26 42  1  0
 26 43  1  0
 26 44  1  0
 27 45  1  0
 27 46  1  0
 27 47  1  0
M  END
$$$$
confid_6
     RDKit          3D

 47 50  0  0  0  0  0  0  0  0999 V2000
   24.2000   26.2400   35.6900 N   0  0  0  0  0  0  0  0  0  0  0  0
   24.8500   26.2800   34.4800 C   0  0  0  0  0  0  0  0  0  0  0  0
   24.3100   25.7400   33.5400 O   0  0  0  0  0  0  0  0  0  0  0  0
   26.1800   26.9700   34.4700 C   0  0  0  0  0  0  0  0  0  0  0  0
   26.6500   27.6000   35.5500 N   0  0  0  0  0  0  0  0  0  0  0  0
   27.7900   28.2700   35.6200 N   0  0  0  0  0  0  0  0  0  0  0  0
   28.5400   28.3000   34.5100 C   0  0  0  0  0  0  0  0  0  0  0  0
   29.7700   28.9400   34.5600 C   0  0  0  0  0  0  0  0  0  0  0  0
   30.7000   28.8900   33.5000 C   0  0  0  0  0  0  0  0  0  0  0  0
   30.3700   28.1400   32.3700 C   0  0  0  0  0  0  0  0  0  0  0  0
   29.1200   27.5200   32.2800 C   0  0  0  0  0  0  0  0  0  0  0  0
   28.2100   27.6100   33.3300 C   0  0  0  0  0  0  0  0  0  0  0  0
   26.9700   26.9700   33.3100 C   0  0  0  0  0  0  0  0  0  0  0  0
   26.5300   26.2400   32.2200 N   0  0  0  0  0  0  0  0  0  0  0  0
   22.7666   26.1555   35.8421 C   0  0  0  0  0  0  0  0  0  0  0  0
   21.9565   26.1594   34.7380 N   0  0  0  0  0  0  0  0  0  0  0  0
   20.6103   26.0962   34.8728 C   0  0  0  0  0  0  0  0  0  0  0  0
   19.5995   26.0870   33.7812 C   0  0  0  0  0  0  0  0  0  0  0  0
   18.2556   26.0182   34.5538 C   0  0  0  0  0  0  0  0  0  0  0  0
   18.6100   25.9906   35.9744 N   0  0  0  0  0  0  0  0  0  0  0  0
   20.0185   26.0387   36.0934 C   0  0  0  0  0  0  0  0  0  0  0  0
   20.7787   26.0390   37.2595 C   0  0  0  0  0  0  0  0  0  0  0  0
   22.1873   26.0936   37.1406 C   0  0  0  0  0  0  0  0  0  0  0  0
   23.0314   26.0986   38.2649 O   0  0  0  0  0  0  0  0  0  0  0  0
   22.6156   25.9265   39.6202 C   0  0  0  0  0  0  0  0  0  0  0  0
   22.2839   24.4647   39.9027 C   0  0  0  0  0  0  0  0  0  0  0  0
   17.6590   25.9200   37.0775 C   0  0  0  0  0  0  0  0  0  0  0  0
   24.7748   26.3048   36.5601 H   0  0  0  0  0  0  0  0  0  0  0  0
   30.0498   29.4794   35.4572 H   0  0  0  0  0  0  0  0  0  0  0  0
   31.6569   29.3901   33.5752 H   0  0  0  0  0  0  0  0  0  0  0  0
   31.0715   28.0647   31.5492 H   0  0  0  0  0  0  0  0  0  0  0  0
   28.8857   26.9764   31.3746 H   0  0  0  0  0  0  0  0  0  0  0  0
   25.6751   26.5394   31.7004 H   0  0  0  0  0  0  0  0  0  0  0  0
   27.1526   25.5363   31.7650 H   0  0  0  0  0  0  0  0  0  0  0  0
   19.6705   27.0200   33.1803 H   0  0  0  0  0  0  0  0  0  0  0  0
   19.7375   25.1928   33.1366 H   0  0  0  0  0  0  0  0  0  0  0  0
   17.6965   25.0963   34.2855 H   0  0  0  0  0  0  0  0  0  0  0  0
   17.6349   26.9140   34.3371 H   0  0  0  0  0  0  0  0  0  0  0  0
   20.2845   26.0013   38.2195 H   0  0  0  0  0  0  0  0  0  0  0  0
   21.7550   26.5863   39.8591 H   0  0  0  0  0  0  0  0  0  0  0  0
   23.4551   26.2264   40.2819 H   0  0  0  0  0  0  0  0  0  0  0  0
   23.1752   23.8318   39.7054 H   0  0  0  0  0  0  0  0  0  0  0  0
   21.9886   24.3479   40.9671 H   0  0  0  0  0  0  0  0  0  0  0  0
   21.4481   24.1179   39.2615 H   0  0  0  0  0  0  0  0  0  0  0  0
   17.8586   25.0121   37.6859 H   0  0  0  0  0  0  0  0  0  0  0  0
   16.6198   25.8709   36.6870 H   0  0  0  0  0  0  0  0  0  0  0  0
   17.7600   26.8236   37.7158 H   0  0  0  0  0  0  0  0  0  0  0  0
  1  2  1  0
  2  3  2  0
  2  4  1  0
  4  5  2  0
  5  6  1  0
  6  7  2  0
  7  8  1  0
  8  9  2  0
  9 10  1  0
 10 11  2  0
 11 12  1  0
 12 13  2  0
 13 14  1  0
  1 15  1  0
 15 16  2  0
 16 17  1  0
 17 18  1  0
 18 19  1  0
 19 20  1  0
 20 21  1  0
 21 22  1  0
 22 23  2  0
 23 24  1  0
 24 25  1  0
 25 26  1  0
 20 27  1  0
 13  4  1  0
 23 15  1  0
 12  7  1  0
 21 17  2  0
  1 28  1  0
  8 29  1  0
  9 30  1  0
 10 31  1  0
 11 32  1  0
 14 33  1  0
 14 34  1  0
 18 35  1  0
 18 36  1  0
 19 37  1  0
 19 38  1  0
 22 39  1  0
 25 40  1  0
 25 41  1  0
 26 42  1  0
 26 43  1  0
 26 44  1  0
 27 45  1  0
 27 46  1  0
 27 47  1  0
M  END
$$$$
