confid_0
     RDKit          3D

 47 51  0  0  0  0  0  0  0  0999 V2000
   25.3300   26.2600   34.7600 N   0  0  0  0  0  0  0  0  0  0  0  0
   26.1200   25.9200   33.6900 C   0  0  0  0  0  0  0  0  0  0  0  0
   25.6300   25.1100   32.9400 O   0  0  0  0  0  0  0  0  0  0  0  0
   27.5200   26.3800   33.4600 C   0  0  0  0  0  0  0  0  0  0  0  0
   28.1600   26.6300   34.6100 N   0  0  0  0  0  0  0  0  0  0  0  0
   29.4800   26.8500   34.5700 N   0  0  0  0  0  0  0  0  0  0  0  0
   30.1900   26.7800   33.4400 C   0  0  0  0  0  0  0  0  0  0  0  0
   31.5600   27.0500   33.5000 C   0  0  0  0  0  0  0  0  0  0  0  0
   32.2700   27.2400   32.3100 C   0  0  0  0  0  0  0  0  0  0  0  0
   31.6100   27.2500   31.0800 C   0  0  0  0  0  0  0  0  0  0  0  0
   30.2700   26.8700   31.0600 C   0  0  0  0  0  0  0  0  0  0  0  0
   29.5100   26.6900   32.2300 C   0  0  0  0  0  0  0  0  0  0  0  0
   28.1400   26.4100   32.2000 C   0  0  0  0  0  0  0  0  0  0  0  0
   27.4300   26.1300   31.0500 N   0  0  0  0  0  0  0  0  0  0  0  0
   26.4931   27.1356   30.5335 C   0  0  0  0  0  0  0  0  0  0  0  0
   26.5996   27.2125   29.0132 C   0  0  0  0  0  0  0  0  0  0  0  0
   26.3976   25.8802   28.4297 N   0  0  0  0  0  0  0  0  0  0  0  0
   25.5086   25.7139   27.2745 C   0  0  0  0  0  0  0  0  0  0  0  0
   27.0653   24.7480   29.0356 C   0  0  0  0  0  0  0  0  0  0  0  0
   27.1966   23.5208   28.3539 C   0  0  0  0  0  0  0  0  0  0  0  0
   27.8447   22.4442   28.9602 C   0  0  0  0  0  0  0  0  0  0  0  0
   27.9566   21.2152   28.3015 O   0  0  0  0  0  0  0  0  0  0  0  0
   28.3638   20.0364   29.0006 C   0  0  0  0  0  0  0  0  0  0  0  0
   29.4631   20.3748   30.0155 C   0  0  0  0  0  0  0  0  0  0  0  0
   29.0758   21.5012   30.8062 O   0  0  0  0  0  0  0  0  0  0  0  0
   28.3928   22.5819   30.2386 C   0  0  0  0  0  0  0  0  0  0  0  0
   28.2551   23.7820   30.9352 C   0  0  0  0  0  0  0  0  0  0  0  0
   27.5931   24.8771   30.3424 C   0  0  0  0  0  0  0  0  0  0  0  0
   25.6645   26.9503   35.4682 H   0  0  0  0  0  0  0  0  0  0  0  0
   24.3717   25.8585   34.8763 H   0  0  0  0  0  0  0  0  0  0  0  0
   32.0668   27.1426   34.4530 H   0  0  0  0  0  0  0  0  0  0  0  0
   33.3287   27.4616   32.3494 H   0  0  0  0  0  0  0  0  0  0  0  0
   32.1501   27.4368   30.1608 H   0  0  0  0  0  0  0  0  0  0  0  0
   29.7872   26.8022   30.0931 H   0  0  0  0  0  0  0  0  0  0  0  0
   25.4562   26.8546   30.8173 H   0  0  0  0  0  0  0  0  0  0  0  0
   26.7132   28.1394   30.9610 H   0  0  0  0  0  0  0  0  0  0  0  0
   25.8534   27.9434   28.6343 H   0  0  0  0  0  0  0  0  0  0  0  0
   27.6118   27.5791   28.7364 H   0  0  0  0  0  0  0  0  0  0  0  0
   24.7401   24.9443   27.4989 H   0  0  0  0  0  0  0  0  0  0  0  0
   26.0988   25.4061   26.3863 H   0  0  0  0  0  0  0  0  0  0  0  0
   24.9840   26.6590   27.0215 H   0  0  0  0  0  0  0  0  0  0  0  0
   26.7991   23.3881   27.3575 H   0  0  0  0  0  0  0  0  0  0  0  0
   27.4878   19.6152   29.5390 H   0  0  0  0  0  0  0  0  0  0  0  0
   28.7311   19.2815   28.2741 H   0  0  0  0  0  0  0  0  0  0  0  0
   30.3994   20.6212   29.4703 H   0  0  0  0  0  0  0  0  0  0  0  0
   29.6557   19.5046   30.6774 H   0  0  0  0  0  0  0  0  0  0  0  0
   28.6667   23.8535   31.9333 H   0  0  0  0  0  0  0  0  0  0  0  0
  1  2  1  0
  2  3  2  0
  2  4  1  0
  4  5  2  0
  5  6  1  0
  6  7  2  0
  7  8  1  0
  8  9  2  0
  9 10  1  0
 10 11  2  0
 11 12  1  0
 12 13  2  0
 13 14  1  0
 14 15  1  0
 15 16  1  0
 16 17  1  0
 17 18  1  0
 17 19  1  0
 19 20  2  0
 20 21  1  0
 21 22  1  0
 22 23  1  0
 23 24  1  0
 24 25  1  0
 25 26  1  0
 26 27  1  0
 27 28  2  0
 13  4  1  0
 28 14  1  0
 12  7  1  0
 28 19  1  0
 26 21  2  0
  1 29  1  0
  1 30  1  0
  8 31  1  0
  9 32  1  0
 10 33  1  0
 11 34  1  0
 15 35  1  0
 15 36  1  0
 16 37  1  0
 16 38  1  0
 18 39  1  0
 18 40  1  0
 18 41  1  0
 20 42  1  0
 23 43  1  0
 23 44  1  0
 24 45  1  0
 24 46  1  0
 27 47  1  0
M  END
$$$$
confid_1
     RDKit          3D

 47 51  0  0  0  0  0  0  0  0999 V2000
   25.3300   26.2600   34.7600 N   0  0  0  0  0  0  0  0  0  0  0  0
   26.1200   25.9200   33.6900 C   0  0  0  0  0  0  0  0  0  0  0  0
   25.6300   25.1100   32.9400 O   0  0  0  0  0  0  0  0  0  0  0  0
   27.5200   26.3800   33.4600 C   0  0  0  0  0  0  0  0  0  0  0  0
   28.1600   26.6300   34.6100 N   0  0  0  0  0  0  0  0  0  0  0  0
   29.4800   26.8500   34.5700 N   0  0  0  0  0  0  0  0  0  0  0  0
   30.1900   26.7800   33.4400 C   0  0  0  0  0  0  0  0  0  0  0  0
   31.5600   27.0500   33.5000 C   0  0  0  0  0  0  0  0  0  0  0  0
   32.2700   27.2400   32.3100 C   0  0  0  0  0  0  0  0  0  0  0  0
   31.6100   27.2500   31.0800 C   0  0  0  0  0  0  0  0  0  0  0  0
   30.2700   26.8700   31.0600 C   0  0  0  0  0  0  0  0  0  0  0  0
   29.5100   26.6900   32.2300 C   0  0  0  0  0  0  0  0  0  0  0  0
   28.1400   26.4100   32.2000 C   0  0  0  0  0  0  0  0  0  0  0  0
   27.4300   26.1300   31.0500 N   0  0  0  0  0  0  0  0  0  0  0  0
   26.7007   27.2370   30.4162 C   0  0  0  0  0  0  0  0  0  0  0  0
   25.5299   26.7072   29.5937 C   0  0  0  0  0  0  0  0  0  0  0  0
   26.0088   25.6963   28.6454 N   0  0  0  0  0  0  0  0  0  0  0  0
   25.6346   25.7727   27.2292 C   0  0  0  0  0  0  0  0  0  0  0  0
   26.8840   24.6585   29.1384 C   0  0  0  0  0  0  0  0  0  0  0  0
   27.0434   23.4436   28.4428 C   0  0  0  0  0  0  0  0  0  0  0  0
   27.8592   22.4381   28.9615 C   0  0  0  0  0  0  0  0  0  0  0  0
   27.9965   21.2155   28.2958 O   0  0  0  0  0  0  0  0  0  0  0  0
   28.5911   20.0859   28.9400 C   0  0  0  0  0  0  0  0  0  0  0  0
   29.7735   20.5326   29.8092 C   0  0  0  0  0  0  0  0  0  0  0  0
   29.3888   21.6304   30.6404 O   0  0  0  0  0  0  0  0  0  0  0  0
   28.5474   22.6397   30.1610 C   0  0  0  0  0  0  0  0  0  0  0  0
   28.3939   23.8330   30.8664 C   0  0  0  0  0  0  0  0  0  0  0  0
   27.5762   24.8641   30.3555 C   0  0  0  0  0  0  0  0  0  0  0  0
   24.3717   25.8586   34.8762 H   0  0  0  0  0  0  0  0  0  0  0  0
   25.6645   26.9503   35.4682 H   0  0  0  0  0  0  0  0  0  0  0  0
   32.0668   27.1425   34.4530 H   0  0  0  0  0  0  0  0  0  0  0  0
   33.3287   27.4614   32.3494 H   0  0  0  0  0  0  0  0  0  0  0  0
   32.1503   27.4360   30.1608 H   0  0  0  0  0  0  0  0  0  0  0  0
   29.7888   26.7994   30.0926 H   0  0  0  0  0  0  0  0  0  0  0  0
   27.3929   27.7999   29.7532 H   0  0  0  0  0  0  0  0  0  0  0  0
   26.3070   27.9372   31.1864 H   0  0  0  0  0  0  0  0  0  0  0  0
   24.7860   26.2408   30.2754 H   0  0  0  0  0  0  0  0  0  0  0  0
   25.0346   27.5557   29.0746 H   0  0  0  0  0  0  0  0  0  0  0  0
   25.0976   26.7165   26.9986 H   0  0  0  0  0  0  0  0  0  0  0  0
   26.5466   25.7337   26.5967 H   0  0  0  0  0  0  0  0  0  0  0  0
   24.9641   24.9271   26.9704 H   0  0  0  0  0  0  0  0  0  0  0  0
   26.5183   23.2573   27.5163 H   0  0  0  0  0  0  0  0  0  0  0  0
   28.9310   19.3575   28.1743 H   0  0  0  0  0  0  0  0  0  0  0  0
   27.8299   19.5958   29.5842 H   0  0  0  0  0  0  0  0  0  0  0  0
   30.6091   20.8537   29.1509 H   0  0  0  0  0  0  0  0  0  0  0  0
   30.1236   19.6911   30.4431 H   0  0  0  0  0  0  0  0  0  0  0  0
   28.9271   23.9520   31.7998 H   0  0  0  0  0  0  0  0  0  0  0  0
  1  2  1  0
  2  3  2  0
  2  4  1  0
  4  5  2  0
  5  6  1  0
  6  7  2  0
  7  8  1  0
  8  9  2  0
  9 10  1  0
 10 11  2  0
 11 12  1  0
 12 13  2  0
 13 14  1  0
 14 15  1  0
 15 16  1  0
 16 17  1  0
 17 18  1  0
 17 19  1  0
 19 20  2  0
 20 21  1  0
 21 22  1  0
 22 23  1  0
 23 24  1  0
 24 25  1  0
 25 26  1  0
 26 27  1  0
 27 28  2  0
 13  4  1  0
 28 14  1  0
 12  7  1  0
 28 19  1  0
 26 21  2  0
  1 29  1  0
  1 30  1  0
  8 31  1  0
  9 32  1  0
 10 33  1  0
 11 34  1  0
 15 35  1  0
 15 36  1  0
 16 37  1  0
 16 38  1  0
 18 39  1  0
 18 40  1  0
 18 41  1  0
 20 42  1  0
 23 43  1  0
 23 44  1  0
 24 45  1  0
 24 46  1  0
 27 47  1  0
M  END
$$$$
confid_2
     RDKit          3D

 47 51  0  0  0  0  0  0  0  0999 V2000
   25.3300   26.2600   34.7600 N   0  0  0  0  0  0  0  0  0  0  0  0
   26.1200   25.9200   33.6900 C   0  0  0  0  0  0  0  0  0  0  0  0
   25.6300   25.1100   32.9400 O   0  0  0  0  0  0  0  0  0  0  0  0
   27.5200   26.3800   33.4600 C   0  0  0  0  0  0  0  0  0  0  0  0
   28.1600   26.6300   34.6100 N   0  0  0  0  0  0  0  0  0  0  0  0
   29.4800   26.8500   34.5700 N   0  0  0  0  0  0  0  0  0  0  0  0
   30.1900   26.7800   33.4400 C   0  0  0  0  0  0  0  0  0  0  0  0
   31.5600   27.0500   33.5000 C   0  0  0  0  0  0  0  0  0  0  0  0
   32.2700   27.2400   32.3100 C   0  0  0  0  0  0  0  0  0  0  0  0
   31.6100   27.2500   31.0800 C   0  0  0  0  0  0  0  0  0  0  0  0
   30.2700   26.8700   31.0600 C   0  0  0  0  0  0  0  0  0  0  0  0
   29.5100   26.6900   32.2300 C   0  0  0  0  0  0  0  0  0  0  0  0
   28.1400   26.4100   32.2000 C   0  0  0  0  0  0  0  0  0  0  0  0
   27.4300   26.1300   31.0500 N   0  0  0  0  0  0  0  0  0  0  0  0
   27.6036   24.8013   30.4399 C   0  0  0  0  0  0  0  0  0  0  0  0
   27.3646   24.8628   28.9344 C   0  0  0  0  0  0  0  0  0  0  0  0
   26.0580   25.4717   28.6678 N   0  0  0  0  0  0  0  0  0  0  0  0
   25.1025   24.8160   27.7687 C   0  0  0  0  0  0  0  0  0  0  0  0
   25.7334   26.7057   29.3435 C   0  0  0  0  0  0  0  0  0  0  0  0
   24.7390   27.5720   28.8476 C   0  0  0  0  0  0  0  0  0  0  0  0
   24.4716   28.7784   29.4945 C   0  0  0  0  0  0  0  0  0  0  0  0
   23.4682   29.6331   29.0262 O   0  0  0  0  0  0  0  0  0  0  0  0
   23.0029   30.7292   29.8176 C   0  0  0  0  0  0  0  0  0  0  0  0
   24.1766   31.3864   30.5549 C   0  0  0  0  0  0  0  0  0  0  0  0
   24.9636   30.3925   31.2159 O   0  0  0  0  0  0  0  0  0  0  0  0
   25.2129   29.1524   30.6186 C   0  0  0  0  0  0  0  0  0  0  0  0
   26.1858   28.2966   31.1346 C   0  0  0  0  0  0  0  0  0  0  0  0
   26.4447   27.0539   30.5165 C   0  0  0  0  0  0  0  0  0  0  0  0
   25.6639   26.9517   35.4671 H   0  0  0  0  0  0  0  0  0  0  0  0
   24.3715   25.8591   34.8759 H   0  0  0  0  0  0  0  0  0  0  0  0
   32.0668   27.1427   34.4530 H   0  0  0  0  0  0  0  0  0  0  0  0
   33.3286   27.4619   32.3494 H   0  0  0  0  0  0  0  0  0  0  0  0
   32.1498   27.4381   30.1609 H   0  0  0  0  0  0  0  0  0  0  0  0
   29.7860   26.8071   30.0934 H   0  0  0  0  0  0  0  0  0  0  0  0
   26.8830   24.0886   30.8937 H   0  0  0  0  0  0  0  0  0  0  0  0
   28.6307   24.4143   30.6220 H   0  0  0  0  0  0  0  0  0  0  0  0
   27.4346   23.8379   28.5107 H   0  0  0  0  0  0  0  0  0  0  0  0
   28.1569   25.4835   28.4628 H   0  0  0  0  0  0  0  0  0  0  0  0
   24.9776   25.4201   26.8461 H   0  0  0  0  0  0  0  0  0  0  0  0
   24.1221   24.7050   28.2784 H   0  0  0  0  0  0  0  0  0  0  0  0
   25.4501   23.8049   27.4703 H   0  0  0  0  0  0  0  0  0  0  0  0
   24.1728   27.3236   27.9607 H   0  0  0  0  0  0  0  0  0  0  0  0
   22.2701   30.3514   30.5625 H   0  0  0  0  0  0  0  0  0  0  0  0
   22.4962   31.4704   29.1647 H   0  0  0  0  0  0  0  0  0  0  0  0
   23.8006   32.1188   31.2996 H   0  0  0  0  0  0  0  0  0  0  0  0
   24.8148   31.9222   29.8198 H   0  0  0  0  0  0  0  0  0  0  0  0
   26.7375   28.6131   32.0092 H   0  0  0  0  0  0  0  0  0  0  0  0
  1  2  1  0
  2  3  2  0
  2  4  1  0
  4  5  2  0
  5  6  1  0
  6  7  2  0
  7  8  1  0
  8  9  2  0
  9 10  1  0
 10 11  2  0
 11 12  1  0
 12 13  2  0
 13 14  1  0
 14 15  1  0
 15 16  1  0
 16 17  1  0
 17 18  1  0
 17 19  1  0
 19 20  2  0
 20 21  1  0
 21 22  1  0
 22 23  1  0
 23 24  1  0
 24 25  1  0
 25 26  1  0
 26 27  1  0
 27 28  2  0
 13  4  1  0
 28 14  1  0
 12  7  1  0
 28 19  1  0
 26 21  2  0
  1 29  1  0
  1 30  1  0
  8 31  1  0
  9 32  1  0
 10 33  1  0
 11 34  1  0
 15 35  1  0
 15 36  1  0
 16 37  1  0
 16 38  1  0
 18 39  1  0
 18 40  1  0
 18 41  1  0
 20 42  1  0
 23 43  1  0
 23 44  1  0
 24 45  1  0
 24 46  1  0
 27 47  1  0
M  END
$$$$
confid_3
     RDKit          3D

 47 51  0  0  0  0  0  0  0  0999 V2000
   25.3300   26.2600   34.7600 N   0  0  0  0  0  0  0  0  0  0  0  0
   26.1200   25.9200   33.6900 C   0  0  0  0  0  0  0  0  0  0  0  0
   25.6300   25.1100   32.9400 O   0  0  0  0  0  0  0  0  0  0  0  0
   27.5200   26.3800   33.4600 C   0  0  0  0  0  0  0  0  0  0  0  0
   28.1600   26.6300   34.6100 N   0  0  0  0  0  0  0  0  0  0  0  0
   29.4800   26.8500   34.5700 N   0  0  0  0  0  0  0  0  0  0  0  0
   30.1900   26.7800   33.4400 C   0  0  0  0  0  0  0  0  0  0  0  0
   31.5600   27.0500   33.5000 C   0  0  0  0  0  0  0  0  0  0  0  0
   32.2700   27.2400   32.3100 C   0  0  0  0  0  0  0  0  0  0  0  0
   31.6100   27.2500   31.0800 C   0  0  0  0  0  0  0  0  0  0  0  0
   30.2700   26.8700   31.0600 C   0  0  0  0  0  0  0  0  0  0  0  0
   29.5100   26.6900   32.2300 C   0  0  0  0  0  0  0  0  0  0  0  0
   28.1400   26.4100   32.2000 C   0  0  0  0  0  0  0  0  0  0  0  0
   27.4300   26.1300   31.0500 N   0  0  0  0  0  0  0  0  0  0  0  0
   27.6139   24.8133   30.4220 C   0  0  0  0  0  0  0  0  0  0  0  0
   26.3550   24.4015   29.6632 C   0  0  0  0  0  0  0  0  0  0  0  0
   25.9735   25.4580   28.7198 N   0  0  0  0  0  0  0  0  0  0  0  0
   25.6524   25.1225   27.3282 C   0  0  0  0  0  0  0  0  0  0  0  0
   25.9603   26.8257   29.1872 C   0  0  0  0  0  0  0  0  0  0  0  0
   25.2540   27.8297   28.4946 C   0  0  0  0  0  0  0  0  0  0  0  0
   25.2522   29.1423   28.9665 C   0  0  0  0  0  0  0  0  0  0  0  0
   24.5760   30.1504   28.2712 O   0  0  0  0  0  0  0  0  0  0  0  0
   24.7865   31.5303   28.5806 C   0  0  0  0  0  0  0  0  0  0  0  0
   24.9299   31.7180   30.0962 C   0  0  0  0  0  0  0  0  0  0  0  0
   25.8715   30.7801   30.6234 O   0  0  0  0  0  0  0  0  0  0  0  0
   25.9275   29.4663   30.1463 C   0  0  0  0  0  0  0  0  0  0  0  0
   26.6477   28.4896   30.8335 C   0  0  0  0  0  0  0  0  0  0  0  0
   26.6756   27.1594   30.3621 C   0  0  0  0  0  0  0  0  0  0  0  0
   25.6642   26.9509   35.4677 H   0  0  0  0  0  0  0  0  0  0  0  0
   24.3717   25.8586   34.8762 H   0  0  0  0  0  0  0  0  0  0  0  0
   32.0667   27.1429   34.4530 H   0  0  0  0  0  0  0  0  0  0  0  0
   33.3284   27.4626   32.3495 H   0  0  0  0  0  0  0  0  0  0  0  0
   32.1492   27.4408   30.1611 H   0  0  0  0  0  0  0  0  0  0  0  0
   29.7864   26.8194   30.0931 H   0  0  0  0  0  0  0  0  0  0  0  0
   27.8355   24.0418   31.1929 H   0  0  0  0  0  0  0  0  0  0  0  0
   28.4688   24.8545   29.7140 H   0  0  0  0  0  0  0  0  0  0  0  0
   26.5432   23.4369   29.1447 H   0  0  0  0  0  0  0  0  0  0  0  0
   25.5243   24.2441   30.3836 H   0  0  0  0  0  0  0  0  0  0  0  0
   24.5757   25.3092   27.1345 H   0  0  0  0  0  0  0  0  0  0  0  0
   25.8573   24.0542   27.1066 H   0  0  0  0  0  0  0  0  0  0  0  0
   26.2689   25.7395   26.6407 H   0  0  0  0  0  0  0  0  0  0  0  0
   24.7050   27.6055   27.5907 H   0  0  0  0  0  0  0  0  0  0  0  0
   23.9350   32.1312   28.1981 H   0  0  0  0  0  0  0  0  0  0  0  0
   25.7175   31.8744   28.0810 H   0  0  0  0  0  0  0  0  0  0  0  0
   25.2662   32.7510   30.3252 H   0  0  0  0  0  0  0  0  0  0  0  0
   23.9436   31.5496   30.5794 H   0  0  0  0  0  0  0  0  0  0  0  0
   27.1761   28.7756   31.7332 H   0  0  0  0  0  0  0  0  0  0  0  0
  1  2  1  0
  2  3  2  0
  2  4  1  0
  4  5  2  0
  5  6  1  0
  6  7  2  0
  7  8  1  0
  8  9  2  0
  9 10  1  0
 10 11  2  0
 11 12  1  0
 12 13  2  0
 13 14  1  0
 14 15  1  0
 15 16  1  0
 16 17  1  0
 17 18  1  0
 17 19  1  0
 19 20  2  0
 20 21  1  0
 21 22  1  0
 22 23  1  0
 23 24  1  0
 24 25  1  0
 25 26  1  0
 26 27  1  0
 27 28  2  0
 13  4  1  0
 28 14  1  0
 12  7  1  0
 28 19  1  0
 26 21  2  0
  1 29  1  0
  1 30  1  0
  8 31  1  0
  9 32  1  0
 10 33  1  0
 11 34  1  0
 15 35  1  0
 15 36  1  0
 16 37  1  0
 16 38  1  0
 18 39  1  0
 18 40  1  0
 18 41  1  0
 20 42  1  0
 23 43  1  0
 23 44  1  0
 24 45  1  0
 24 46  1  0
 27 47  1  0
M  END
$$$$
