confid_0
     RDKit          3D

 42 45  0  0  0  0  0  0  0  0999 V2000
   25.3300   26.2600   34.7600 N   0  0  0  0  0  0  0  0  0  0  0  0
   26.1200   25.9200   33.6900 C   0  0  0  0  0  0  0  0  0  0  0  0
   25.6300   25.1100   32.9400 O   0  0  0  0  0  0  0  0  0  0  0  0
   27.5200   26.3800   33.4600 C   0  0  0  0  0  0  0  0  0  0  0  0
   28.1600   26.6300   34.6100 N   0  0  0  0  0  0  0  0  0  0  0  0
   29.4800   26.8500   34.5700 N   0  0  0  0  0  0  0  0  0  0  0  0
   30.1900   26.7800   33.4400 C   0  0  0  0  0  0  0  0  0  0  0  0
   31.5600   27.0500   33.5000 C   0  0  0  0  0  0  0  0  0  0  0  0
   32.2700   27.2400   32.3100 C   0  0  0  0  0  0  0  0  0  0  0  0
   31.6100   27.2500   31.0800 C   0  0  0  0  0  0  0  0  0  0  0  0
   30.2700   26.8700   31.0600 C   0  0  0  0  0  0  0  0  0  0  0  0
   29.5100   26.6900   32.2300 C   0  0  0  0  0  0  0  0  0  0  0  0
   28.1400   26.4100   32.2000 C   0  0  0  0  0  0  0  0  0  0  0  0
   27.4300   26.1300   31.0500 N   0  0  0  0  0  0  0  0  0  0  0  0
   24.1879   25.5124   35.2302 C   0  0  0  0  0  0  0  0  0  0  0  0
   24.0248   24.2018   34.8704 N   0  0  0  0  0  0  0  0  0  0  0  0
   22.9652   23.5024   35.3439 C   0  0  0  0  0  0  0  0  0  0  0  0
   22.6016   22.1050   35.0534 C   0  0  0  0  0  0  0  0  0  0  0  0
   21.4188   21.8271   35.9106 N   0  0  0  0  0  0  0  0  0  0  0  0
   20.9935   23.1196   36.5141 C   0  0  0  0  0  0  0  0  0  0  0  0
   22.0605   24.0735   36.1663 C   0  0  0  0  0  0  0  0  0  0  0  0
   22.1768   25.3679   36.5493 N   0  0  0  0  0  0  0  0  0  0  0  0
   23.2340   26.1069   36.1023 C   0  0  0  0  0  0  0  0  0  0  0  0
   23.3530   27.7861   36.6045 Cl  0  0  0  0  0  0  0  0  0  0  0  0
   20.3380   21.1702   35.1505 C   0  0  0  0  0  0  0  0  0  0  0  0
   19.2829   20.5970   36.0937 C   0  0  0  0  0  0  0  0  0  0  0  0
   25.6098   27.1157   35.2887 H   0  0  0  0  0  0  0  0  0  0  0  0
   32.0668   27.1425   34.4530 H   0  0  0  0  0  0  0  0  0  0  0  0
   33.3288   27.4608   32.3494 H   0  0  0  0  0  0  0  0  0  0  0  0
   32.1515   27.4335   30.1608 H   0  0  0  0  0  0  0  0  0  0  0  0
   29.8039   26.7906   30.0880 H   0  0  0  0  0  0  0  0  0  0  0  0
   27.5768   26.6942   30.1847 H   0  0  0  0  0  0  0  0  0  0  0  0
   26.8612   25.2624   30.9527 H   0  0  0  0  0  0  0  0  0  0  0  0
   22.3819   22.0072   33.9660 H   0  0  0  0  0  0  0  0  0  0  0  0
   23.4353   21.4277   35.3341 H   0  0  0  0  0  0  0  0  0  0  0  0
   20.0270   23.4931   36.1079 H   0  0  0  0  0  0  0  0  0  0  0  0
   20.9235   23.0125   37.6169 H   0  0  0  0  0  0  0  0  0  0  0  0
   19.8649   21.8770   34.4320 H   0  0  0  0  0  0  0  0  0  0  0  0
   20.7559   20.3200   34.5661 H   0  0  0  0  0  0  0  0  0  0  0  0
   18.7705   21.4095   36.6501 H   0  0  0  0  0  0  0  0  0  0  0  0
   19.7574   19.9014   36.8179 H   0  0  0  0  0  0  0  0  0  0  0  0
   18.5229   20.0392   35.5071 H   0  0  0  0  0  0  0  0  0  0  0  0
  1  2  1  0
  2  3  2  0
  2  4  1  0
  4  5  2  0
  5  6  1  0
  6  7  2  0
  7  8  1  0
  8  9  2  0
  9 10  1  0
 10 11  2  0
 11 12  1  0
 12 13  2  0
 13 14  1  0
  1 15  1  0
 15 16  2  0
 16 17  1  0
 17 18  1  0
 18 19  1  0
 19 20  1  0
 20 21  1  0
 21 22  1  0
 22 23  2  0
 23 24  1  0
 19 25  1  0
 25 26  1  0
 13  4  1  0
 23 15  1  0
 12  7  1  0
 21 17  2  0
  1 27  1  0
  8 28  1  0
  9 29  1  0
 10 30  1  0
 11 31  1  0
 14 32  1  0
 14 33  1  0
 18 34  1  0
 18 35  1  0
 20 36  1  0
 20 37  1  0
 25 38  1  0
 25 39  1  0
 26 40  1  0
 26 41  1  0
 26 42  1  0
M  END
$$$$
confid_1
     RDKit          3D

 42 45  0  0  0  0  0  0  0  0999 V2000
   25.3300   26.2600   34.7600 N   0  0  0  0  0  0  0  0  0  0  0  0
   26.1200   25.9200   33.6900 C   0  0  0  0  0  0  0  0  0  0  0  0
   25.6300   25.1100   32.9400 O   0  0  0  0  0  0  0  0  0  0  0  0
   27.5200   26.3800   33.4600 C   0  0  0  0  0  0  0  0  0  0  0  0
   28.1600   26.6300   34.6100 N   0  0  0  0  0  0  0  0  0  0  0  0
   29.4800   26.8500   34.5700 N   0  0  0  0  0  0  0  0  0  0  0  0
   30.1900   26.7800   33.4400 C   0  0  0  0  0  0  0  0  0  0  0  0
   31.5600   27.0500   33.5000 C   0  0  0  0  0  0  0  0  0  0  0  0
   32.2700   27.2400   32.3100 C   0  0  0  0  0  0  0  0  0  0  0  0
   31.6100   27.2500   31.0800 C   0  0  0  0  0  0  0  0  0  0  0  0
   30.2700   26.8700   31.0600 C   0  0  0  0  0  0  0  0  0  0  0  0
   29.5100   26.6900   32.2300 C   0  0  0  0  0  0  0  0  0  0  0  0
   28.1400   26.4100   32.2000 C   0  0  0  0  0  0  0  0  0  0  0  0
   27.4300   26.1300   31.0500 N   0  0  0  0  0  0  0  0  0  0  0  0
   24.1867   25.5134   35.2288 C   0  0  0  0  0  0  0  0  0  0  0  0
   24.0248   24.2021   34.8713 N   0  0  0  0  0  0  0  0  0  0  0  0
   22.9590   23.5061   35.3359 C   0  0  0  0  0  0  0  0  0  0  0  0
   22.6256   22.0926   35.0903 C   0  0  0  0  0  0  0  0  0  0  0  0
   21.3138   21.8833   35.7584 N   0  0  0  0  0  0  0  0  0  0  0  0
   21.0207   23.1059   36.5552 C   0  0  0  0  0  0  0  0  0  0  0  0
   22.0569   24.0760   36.1621 C   0  0  0  0  0  0  0  0  0  0  0  0
   22.1815   25.3662   36.5567 N   0  0  0  0  0  0  0  0  0  0  0  0
   23.2350   26.1070   36.1040 C   0  0  0  0  0  0  0  0  0  0  0  0
   23.3588   27.7838   36.6131 Cl  0  0  0  0  0  0  0  0  0  0  0  0
   21.3095   20.6553   36.5766 C   0  0  0  0  0  0  0  0  0  0  0  0
   19.8861   20.2778   36.9802 C   0  0  0  0  0  0  0  0  0  0  0  0
   25.6102   27.1154   35.2890 H   0  0  0  0  0  0  0  0  0  0  0  0
   32.0668   27.1429   34.4530 H   0  0  0  0  0  0  0  0  0  0  0  0
   33.3284   27.4627   32.3495 H   0  0  0  0  0  0  0  0  0  0  0  0
   32.1496   27.4414   30.1613 H   0  0  0  0  0  0  0  0  0  0  0  0
   29.7983   26.8254   30.0886 H   0  0  0  0  0  0  0  0  0  0  0  0
   26.4124   26.3493   30.9737 H   0  0  0  0  0  0  0  0  0  0  0  0
   27.8914   25.7239   30.2072 H   0  0  0  0  0  0  0  0  0  0  0  0
   22.5248   21.9082   34.0002 H   0  0  0  0  0  0  0  0  0  0  0  0
   23.4337   21.4521   35.5113 H   0  0  0  0  0  0  0  0  0  0  0  0
   21.0819   22.9354   37.6533 H   0  0  0  0  0  0  0  0  0  0  0  0
   20.0153   23.4941   36.2887 H   0  0  0  0  0  0  0  0  0  0  0  0
   21.7201   19.8089   35.9818 H   0  0  0  0  0  0  0  0  0  0  0  0
   21.9450   20.7740   37.4831 H   0  0  0  0  0  0  0  0  0  0  0  0
   19.2497   20.1714   36.0761 H   0  0  0  0  0  0  0  0  0  0  0  0
   19.8979   19.3104   37.5252 H   0  0  0  0  0  0  0  0  0  0  0  0
   19.4484   21.0509   37.6457 H   0  0  0  0  0  0  0  0  0  0  0  0
  1  2  1  0
  2  3  2  0
  2  4  1  0
  4  5  2  0
  5  6  1  0
  6  7  2  0
  7  8  1  0
  8  9  2  0
  9 10  1  0
 10 11  2  0
 11 12  1  0
 12 13  2  0
 13 14  1  0
  1 15  1  0
 15 16  2  0
 16 17  1  0
 17 18  1  0
 18 19  1  0
 19 20  1  0
 20 21  1  0
 21 22  1  0
 22 23  2  0
 23 24  1  0
 19 25  1  0
 25 26  1  0
 13  4  1  0
 23 15  1  0
 12  7  1  0
 21 17  2  0
  1 27  1  0
  8 28  1  0
  9 29  1  0
 10 30  1  0
 11 31  1  0
 14 32  1  0
 14 33  1  0
 18 34  1  0
 18 35  1  0
 20 36  1  0
 20 37  1  0
 25 38  1  0
 25 39  1  0
 26 40  1  0
 26 41  1  0
 26 42  1  0
M  END
$$$$
confid_2
     RDKit          3D

 42 45  0  0  0  0  0  0  0  0999 V2000
   25.3300   26.2600   34.7600 N   0  0  0  0  0  0  0  0  0  0  0  0
   26.1200   25.9200   33.6900 C   0  0  0  0  0  0  0  0  0  0  0  0
   25.6300   25.1100   32.9400 O   0  0  0  0  0  0  0  0  0  0  0  0
   27.5200   26.3800   33.4600 C   0  0  0  0  0  0  0  0  0  0  0  0
   28.1600   26.6300   34.6100 N   0  0  0  0  0  0  0  0  0  0  0  0
   29.4800   26.8500   34.5700 N   0  0  0  0  0  0  0  0  0  0  0  0
   30.1900   26.7800   33.4400 C   0  0  0  0  0  0  0  0  0  0  0  0
   31.5600   27.0500   33.5000 C   0  0  0  0  0  0  0  0  0  0  0  0
   32.2700   27.2400   32.3100 C   0  0  0  0  0  0  0  0  0  0  0  0
   31.6100   27.2500   31.0800 C   0  0  0  0  0  0  0  0  0  0  0  0
   30.2700   26.8700   31.0600 C   0  0  0  0  0  0  0  0  0  0  0  0
   29.5100   26.6900   32.2300 C   0  0  0  0  0  0  0  0  0  0  0  0
   28.1400   26.4100   32.2000 C   0  0  0  0  0  0  0  0  0  0  0  0
   27.4300   26.1300   31.0500 N   0  0  0  0  0  0  0  0  0  0  0  0
   23.8967   26.0984   34.8149 C   0  0  0  0  0  0  0  0  0  0  0  0
   23.1776   25.9259   33.6629 N   0  0  0  0  0  0  0  0  0  0  0  0
   21.8302   25.7970   33.7258 C   0  0  0  0  0  0  0  0  0  0  0  0
   20.8849   25.6306   32.6089 C   0  0  0  0  0  0  0  0  0  0  0  0
   19.5554   25.4470   33.2523 N   0  0  0  0  0  0  0  0  0  0  0  0
   19.7220   25.7252   34.7035 C   0  0  0  0  0  0  0  0  0  0  0  0
   21.1759   25.8506   34.9049 C   0  0  0  0  0  0  0  0  0  0  0  0
   21.8415   26.0343   36.0707 N   0  0  0  0  0  0  0  0  0  0  0  0
   23.2008   26.1591   36.0541 C   0  0  0  0  0  0  0  0  0  0  0  0
   24.0408   26.3711   37.5824 Cl  0  0  0  0  0  0  0  0  0  0  0  0
   18.5095   26.2971   32.6516 C   0  0  0  0  0  0  0  0  0  0  0  0
   18.1202   25.7817   31.2680 C   0  0  0  0  0  0  0  0  0  0  0  0
   25.7965   26.7325   35.5652 H   0  0  0  0  0  0  0  0  0  0  0  0
   32.0668   27.1429   34.4530 H   0  0  0  0  0  0  0  0  0  0  0  0
   33.3284   27.4627   32.3495 H   0  0  0  0  0  0  0  0  0  0  0  0
   32.1496   27.4414   30.1613 H   0  0  0  0  0  0  0  0  0  0  0  0
   29.7983   26.8254   30.0886 H   0  0  0  0  0  0  0  0  0  0  0  0
   26.4123   26.3490   30.9739 H   0  0  0  0  0  0  0  0  0  0  0  0
   27.8914   25.7241   30.2071 H   0  0  0  0  0  0  0  0  0  0  0  0
   20.9328   26.5311   31.9566 H   0  0  0  0  0  0  0  0  0  0  0  0
   21.1451   24.7248   32.0220 H   0  0  0  0  0  0  0  0  0  0  0  0
   19.3267   24.8737   35.2961 H   0  0  0  0  0  0  0  0  0  0  0  0
   19.2298   26.6718   35.0227 H   0  0  0  0  0  0  0  0  0  0  0  0
   17.5947   26.2674   33.2850 H   0  0  0  0  0  0  0  0  0  0  0  0
   18.8426   27.3574   32.5846 H   0  0  0  0  0  0  0  0  0  0  0  0
   17.2782   26.3857   30.8691 H   0  0  0  0  0  0  0  0  0  0  0  0
   18.9748   25.8619   30.5642 H   0  0  0  0  0  0  0  0  0  0  0  0
   17.7996   24.7203   31.3337 H   0  0  0  0  0  0  0  0  0  0  0  0
  1  2  1  0
  2  3  2  0
  2  4  1  0
  4  5  2  0
  5  6  1  0
  6  7  2  0
  7  8  1  0
  8  9  2  0
  9 10  1  0
 10 11  2  0
 11 12  1  0
 12 13  2  0
 13 14  1  0
  1 15  1  0
 15 16  2  0
 16 17  1  0
 17 18  1  0
 18 19  1  0
 19 20  1  0
 20 21  1  0
 21 22  1  0
 22 23  2  0
 23 24  1  0
 19 25  1  0
 25 26  1  0
 13  4  1  0
 23 15  1  0
 12  7  1  0
 21 17  2  0
  1 27  1  0
  8 28  1  0
  9 29  1  0
 10 30  1  0
 11 31  1  0
 14 32  1  0
 14 33  1  0
 18 34  1  0
 18 35  1  0
 20 36  1  0
 20 37  1  0
 25 38  1  0
 25 39  1  0
 26 40  1  0
 26 41  1  0
 26 42  1  0
M  END
$$$$
confid_3
     RDKit          3D

 42 45  0  0  0  0  0  0  0  0999 V2000
   25.3300   26.2600   34.7600 N   0  0  0  0  0  0  0  0  0  0  0  0
   26.1200   25.9200   33.6900 C   0  0  0  0  0  0  0  0  0  0  0  0
   25.6300   25.1100   32.9400 O   0  0  0  0  0  0  0  0  0  0  0  0
   27.5200   26.3800   33.4600 C   0  0  0  0  0  0  0  0  0  0  0  0
   28.1600   26.6300   34.6100 N   0  0  0  0  0  0  0  0  0  0  0  0
   29.4800   26.8500   34.5700 N   0  0  0  0  0  0  0  0  0  0  0  0
   30.1900   26.7800   33.4400 C   0  0  0  0  0  0  0  0  0  0  0  0
   31.5600   27.0500   33.5000 C   0  0  0  0  0  0  0  0  0  0  0  0
   32.2700   27.2400   32.3100 C   0  0  0  0  0  0  0  0  0  0  0  0
   31.6100   27.2500   31.0800 C   0  0  0  0  0  0  0  0  0  0  0  0
   30.2700   26.8700   31.0600 C   0  0  0  0  0  0  0  0  0  0  0  0
   29.5100   26.6900   32.2300 C   0  0  0  0  0  0  0  0  0  0  0  0
   28.1400   26.4100   32.2000 C   0  0  0  0  0  0  0  0  0  0  0  0
   27.4300   26.1300   31.0500 N   0  0  0  0  0  0  0  0  0  0  0  0
   23.8967   26.0979   34.8151 C   0  0  0  0  0  0  0  0  0  0  0  0
   23.1775   25.9252   33.6633 N   0  0  0  0  0  0  0  0  0  0  0  0
   21.8302   25.7956   33.7264 C   0  0  0  0  0  0  0  0  0  0  0  0
   20.8846   25.6303   32.6093 C   0  0  0  0  0  0  0  0  0  0  0  0
   19.5563   25.4454   33.2515 N   0  0  0  0  0  0  0  0  0  0  0  0
   19.7225   25.7227   34.7045 C   0  0  0  0  0  0  0  0  0  0  0  0
   21.1761   25.8498   34.9056 C   0  0  0  0  0  0  0  0  0  0  0  0
   21.8418   26.0333   36.0714 N   0  0  0  0  0  0  0  0  0  0  0  0
   23.2011   26.1585   36.0545 C   0  0  0  0  0  0  0  0  0  0  0  0
   24.0414   26.3705   37.5826 Cl  0  0  0  0  0  0  0  0  0  0  0  0
   18.5252   26.2939   32.6237 C   0  0  0  0  0  0  0  0  0  0  0  0
   17.1273   25.8590   33.0574 C   0  0  0  0  0  0  0  0  0  0  0  0
   25.7964   26.7328   35.5651 H   0  0  0  0  0  0  0  0  0  0  0  0
   32.0668   27.1429   34.4530 H   0  0  0  0  0  0  0  0  0  0  0  0
   33.3284   27.4627   32.3495 H   0  0  0  0  0  0  0  0  0  0  0  0
   32.1496   27.4414   30.1613 H   0  0  0  0  0  0  0  0  0  0  0  0
   29.7983   26.8254   30.0886 H   0  0  0  0  0  0  0  0  0  0  0  0
   27.8914   25.7241   30.2071 H   0  0  0  0  0  0  0  0  0  0  0  0
   26.4123   26.3490   30.9739 H   0  0  0  0  0  0  0  0  0  0  0  0
   21.1450   24.7265   32.0196 H   0  0  0  0  0  0  0  0  0  0  0  0
   20.9303   26.5342   31.9603 H   0  0  0  0  0  0  0  0  0  0  0  0
   19.2283   26.6662   35.0272 H   0  0  0  0  0  0  0  0  0  0  0  0
   19.3298   24.8691   35.2957 H   0  0  0  0  0  0  0  0  0  0  0  0
   18.5765   26.1866   31.5170 H   0  0  0  0  0  0  0  0  0  0  0  0
   18.6846   27.3682   32.8691 H   0  0  0  0  0  0  0  0  0  0  0  0
   16.3660   26.4564   32.5129 H   0  0  0  0  0  0  0  0  0  0  0  0
   16.9865   26.0190   34.1468 H   0  0  0  0  0  0  0  0  0  0  0  0
   16.9734   24.7842   32.8233 H   0  0  0  0  0  0  0  0  0  0  0  0
  1  2  1  0
  2  3  2  0
  2  4  1  0
  4  5  2  0
  5  6  1  0
  6  7  2  0
  7  8  1  0
  8  9  2  0
  9 10  1  0
 10 11  2  0
 11 12  1  0
 12 13  2  0
 13 14  1  0
  1 15  1  0
 15 16  2  0
 16 17  1  0
 17 18  1  0
 18 19  1  0
 19 20  1  0
 20 21  1  0
 21 22  1  0
 22 23  2  0
 23 24  1  0
 19 25  1  0
 25 26  1  0
 13  4  1  0
 23 15  1  0
 12  7  1  0
 21 17  2  0
  1 27  1  0
  8 28  1  0
  9 29  1  0
 10 30  1  0
 11 31  1  0
 14 32  1  0
 14 33  1  0
 18 34  1  0
 18 35  1  0
 20 36  1  0
 20 37  1  0
 25 38  1  0
 25 39  1  0
 26 40  1  0
 26 41  1  0
 26 42  1  0
M  END
$$$$
confid_4
     RDKit          3D

 42 45  0  0  0  0  0  0  0  0999 V2000
   25.3300   26.2600   34.7600 N   0  0  0  0  0  0  0  0  0  0  0  0
   26.1200   25.9200   33.6900 C   0  0  0  0  0  0  0  0  0  0  0  0
   25.6300   25.1100   32.9400 O   0  0  0  0  0  0  0  0  0  0  0  0
   27.5200   26.3800   33.4600 C   0  0  0  0  0  0  0  0  0  0  0  0
   28.1600   26.6300   34.6100 N   0  0  0  0  0  0  0  0  0  0  0  0
   29.4800   26.8500   34.5700 N   0  0  0  0  0  0  0  0  0  0  0  0
   30.1900   26.7800   33.4400 C   0  0  0  0  0  0  0  0  0  0  0  0
   31.5600   27.0500   33.5000 C   0  0  0  0  0  0  0  0  0  0  0  0
   32.2700   27.2400   32.3100 C   0  0  0  0  0  0  0  0  0  0  0  0
   31.6100   27.2500   31.0800 C   0  0  0  0  0  0  0  0  0  0  0  0
   30.2700   26.8700   31.0600 C   0  0  0  0  0  0  0  0  0  0  0  0
   29.5100   26.6900   32.2300 C   0  0  0  0  0  0  0  0  0  0  0  0
   28.1400   26.4100   32.2000 C   0  0  0  0  0  0  0  0  0  0  0  0
   27.4300   26.1300   31.0500 N   0  0  0  0  0  0  0  0  0  0  0  0
   24.1868   25.5133   35.2290 C   0  0  0  0  0  0  0  0  0  0  0  0
   24.0250   24.2019   34.8714 N   0  0  0  0  0  0  0  0  0  0  0  0
   22.9596   23.5058   35.3363 C   0  0  0  0  0  0  0  0  0  0  0  0
   22.6254   22.0929   35.0897 C   0  0  0  0  0  0  0  0  0  0  0  0
   21.3130   21.8837   35.7599 N   0  0  0  0  0  0  0  0  0  0  0  0
   21.0215   23.1050   36.5565 C   0  0  0  0  0  0  0  0  0  0  0  0
   22.0571   24.0756   36.1621 C   0  0  0  0  0  0  0  0  0  0  0  0
   22.1818   25.3657   36.5570 N   0  0  0  0  0  0  0  0  0  0  0  0
   23.2352   26.1067   36.1043 C   0  0  0  0  0  0  0  0  0  0  0  0
   23.3590   27.7834   36.6137 Cl  0  0  0  0  0  0  0  0  0  0  0  0
   21.2879   20.6689   36.5971 C   0  0  0  0  0  0  0  0  0  0  0  0
   21.2567   19.4129   35.7293 C   0  0  0  0  0  0  0  0  0  0  0  0
   25.6101   27.1155   35.2889 H   0  0  0  0  0  0  0  0  0  0  0  0
   32.0668   27.1429   34.4530 H   0  0  0  0  0  0  0  0  0  0  0  0
   33.3284   27.4627   32.3495 H   0  0  0  0  0  0  0  0  0  0  0  0
   32.1496   27.4414   30.1613 H   0  0  0  0  0  0  0  0  0  0  0  0
   29.7983   26.8254   30.0886 H   0  0  0  0  0  0  0  0  0  0  0  0
   27.8914   25.7239   30.2072 H   0  0  0  0  0  0  0  0  0  0  0  0
   26.4124   26.3493   30.9737 H   0  0  0  0  0  0  0  0  0  0  0  0
   23.4342   21.4514   35.5056 H   0  0  0  0  0  0  0  0  0  0  0  0
   22.5221   21.9111   33.9993 H   0  0  0  0  0  0  0  0  0  0  0  0
   20.0151   23.4928   36.2933 H   0  0  0  0  0  0  0  0  0  0  0  0
   21.0873   22.9323   37.6547 H   0  0  0  0  0  0  0  0  0  0  0  0
   20.3654   20.6636   37.2199 H   0  0  0  0  0  0  0  0  0  0  0  0
   22.1630   20.6365   37.2848 H   0  0  0  0  0  0  0  0  0  0  0  0
   22.1928   19.3192   35.1402 H   0  0  0  0  0  0  0  0  0  0  0  0
   21.1570   18.5159   36.3762 H   0  0  0  0  0  0  0  0  0  0  0  0
   20.3906   19.4515   35.0350 H   0  0  0  0  0  0  0  0  0  0  0  0
  1  2  1  0
  2  3  2  0
  2  4  1  0
  4  5  2  0
  5  6  1  0
  6  7  2  0
  7  8  1  0
  8  9  2  0
  9 10  1  0
 10 11  2  0
 11 12  1  0
 12 13  2  0
 13 14  1  0
  1 15  1  0
 15 16  2  0
 16 17  1  0
 17 18  1  0
 18 19  1  0
 19 20  1  0
 20 21  1  0
 21 22  1  0
 22 23  2  0
 23 24  1  0
 19 25  1  0
 25 26  1  0
 13  4  1  0
 23 15  1  0
 12  7  1  0
 21 17  2  0
  1 27  1  0
  8 28  1  0
  9 29  1  0
 10 30  1  0
 11 31  1  0
 14 32  1  0
 14 33  1  0
 18 34  1  0
 18 35  1  0
 20 36  1  0
 20 37  1  0
 25 38  1  0
 25 39  1  0
 26 40  1  0
 26 41  1  0
 26 42  1  0
M  END
$$$$
confid_5
     RDKit          3D

 42 45  0  0  0  0  0  0  0  0999 V2000
   25.3300   26.2600   34.7600 N   0  0  0  0  0  0  0  0  0  0  0  0
   26.1200   25.9200   33.6900 C   0  0  0  0  0  0  0  0  0  0  0  0
   25.6300   25.1100   32.9400 O   0  0  0  0  0  0  0  0  0  0  0  0
   27.5200   26.3800   33.4600 C   0  0  0  0  0  0  0  0  0  0  0  0
   28.1600   26.6300   34.6100 N   0  0  0  0  0  0  0  0  0  0  0  0
   29.4800   26.8500   34.5700 N   0  0  0  0  0  0  0  0  0  0  0  0
   30.1900   26.7800   33.4400 C   0  0  0  0  0  0  0  0  0  0  0  0
   31.5600   27.0500   33.5000 C   0  0  0  0  0  0  0  0  0  0  0  0
   32.2700   27.2400   32.3100 C   0  0  0  0  0  0  0  0  0  0  0  0
   31.6100   27.2500   31.0800 C   0  0  0  0  0  0  0  0  0  0  0  0
   30.2700   26.8700   31.0600 C   0  0  0  0  0  0  0  0  0  0  0  0
   29.5100   26.6900   32.2300 C   0  0  0  0  0  0  0  0  0  0  0  0
   28.1400   26.4100   32.2000 C   0  0  0  0  0  0  0  0  0  0  0  0
   27.4300   26.1300   31.0500 N   0  0  0  0  0  0  0  0  0  0  0  0
   24.1870   25.5132   35.2294 C   0  0  0  0  0  0  0  0  0  0  0  0
   24.0231   24.2029   34.8693 N   0  0  0  0  0  0  0  0  0  0  0  0
   22.9626   23.5043   35.3419 C   0  0  0  0  0  0  0  0  0  0  0  0
   22.5987   22.1070   35.0521 C   0  0  0  0  0  0  0  0  0  0  0  0
   21.4133   21.8309   35.9090 N   0  0  0  0  0  0  0  0  0  0  0  0
   20.9892   23.1230   36.5105 C   0  0  0  0  0  0  0  0  0  0  0  0
   22.0581   24.0757   36.1644 C   0  0  0  0  0  0  0  0  0  0  0  0
   22.1751   25.3701   36.5474 N   0  0  0  0  0  0  0  0  0  0  0  0
   23.2331   26.1084   36.1010 C   0  0  0  0  0  0  0  0  0  0  0  0
   23.3530   27.7874   36.6033 Cl  0  0  0  0  0  0  0  0  0  0  0  0
   20.3115   21.1881   35.1672 C   0  0  0  0  0  0  0  0  0  0  0  0
   20.6505   19.7348   34.8444 C   0  0  0  0  0  0  0  0  0  0  0  0
   25.6102   27.1154   35.2891 H   0  0  0  0  0  0  0  0  0  0  0  0
   32.0668   27.1429   34.4530 H   0  0  0  0  0  0  0  0  0  0  0  0
   33.3284   27.4627   32.3495 H   0  0  0  0  0  0  0  0  0  0  0  0
   32.1496   27.4414   30.1613 H   0  0  0  0  0  0  0  0  0  0  0  0
   29.7983   26.8254   30.0886 H   0  0  0  0  0  0  0  0  0  0  0  0
   26.4124   26.3493   30.9738 H   0  0  0  0  0  0  0  0  0  0  0  0
   27.8914   25.7239   30.2072 H   0  0  0  0  0  0  0  0  0  0  0  0
   22.3835   22.0068   33.9648 H   0  0  0  0  0  0  0  0  0  0  0  0
   23.4316   21.4302   35.3363 H   0  0  0  0  0  0  0  0  0  0  0  0
   20.9153   23.0166   37.6131 H   0  0  0  0  0  0  0  0  0  0  0  0
   20.0243   23.4969   36.0990 H   0  0  0  0  0  0  0  0  0  0  0  0
   19.3924   21.1817   35.7950 H   0  0  0  0  0  0  0  0  0  0  0  0
   20.0797   21.7436   34.2305 H   0  0  0  0  0  0  0  0  0  0  0  0
   19.7786   19.2482   34.3586 H   0  0  0  0  0  0  0  0  0  0  0  0
   20.8934   19.1842   35.7780 H   0  0  0  0  0  0  0  0  0  0  0  0
   21.5159   19.6779   34.1515 H   0  0  0  0  0  0  0  0  0  0  0  0
  1  2  1  0
  2  3  2  0
  2  4  1  0
  4  5  2  0
  5  6  1  0
  6  7  2  0
  7  8  1  0
  8  9  2  0
  9 10  1  0
 10 11  2  0
 11 12  1  0
 12 13  2  0
 13 14  1  0
  1 15  1  0
 15 16  2  0
 16 17  1  0
 17 18  1  0
 18 19  1  0
 19 20  1  0
 20 21  1  0
 21 22  1  0
 22 23  2  0
 23 24  1  0
 19 25  1  0
 25 26  1  0
 13  4  1  0
 23 15  1  0
 12  7  1  0
 21 17  2  0
  1 27  1  0
  8 28  1  0
  9 29  1  0
 10 30  1  0
 11 31  1  0
 14 32  1  0
 14 33  1  0
 18 34  1  0
 18 35  1  0
 20 36  1  0
 20 37  1  0
 25 38  1  0
 25 39  1  0
 26 40  1  0
 26 41  1  0
 26 42  1  0
M  END
$$$$
confid_6
     RDKit          3D

 42 45  0  0  0  0  0  0  0  0999 V2000
   25.3300   26.2600   34.7600 N   0  0  0  0  0  0  0  0  0  0  0  0
   26.1200   25.9200   33.6900 C   0  0  0  0  0  0  0  0  0  0  0  0
   25.6300   25.1100   32.9400 O   0  0  0  0  0  0  0  0  0  0  0  0
   27.5200   26.3800   33.4600 C   0  0  0  0  0  0  0  0  0  0  0  0
   28.1600   26.6300   34.6100 N   0  0  0  0  0  0  0  0  0  0  0  0
   29.4800   26.8500   34.5700 N   0  0  0  0  0  0  0  0  0  0  0  0
   30.1900   26.7800   33.4400 C   0  0  0  0  0  0  0  0  0  0  0  0
   31.5600   27.0500   33.5000 C   0  0  0  0  0  0  0  0  0  0  0  0
   32.2700   27.2400   32.3100 C   0  0  0  0  0  0  0  0  0  0  0  0
   31.6100   27.2500   31.0800 C   0  0  0  0  0  0  0  0  0  0  0  0
   30.2700   26.8700   31.0600 C   0  0  0  0  0  0  0  0  0  0  0  0
   29.5100   26.6900   32.2300 C   0  0  0  0  0  0  0  0  0  0  0  0
   28.1400   26.4100   32.2000 C   0  0  0  0  0  0  0  0  0  0  0  0
   27.4300   26.1300   31.0500 N   0  0  0  0  0  0  0  0  0  0  0  0
   24.1858   25.5141   35.2275 C   0  0  0  0  0  0  0  0  0  0  0  0
   24.0264   24.2015   34.8732 N   0  0  0  0  0  0  0  0  0  0  0  0
   22.9581   23.5073   35.3338 C   0  0  0  0  0  0  0  0  0  0  0  0
   22.6295   22.0887   35.0997 C   0  0  0  0  0  0  0  0  0  0  0  0
   21.3020   21.8955   35.7409 N   0  0  0  0  0  0  0  0  0  0  0  0
   21.0202   23.1051   36.5584 C   0  0  0  0  0  0  0  0  0  0  0  0
   22.0518   24.0801   36.1572 C   0  0  0  0  0  0  0  0  0  0  0  0
   22.1773   25.3699   36.5519 N   0  0  0  0  0  0  0  0  0  0  0  0
   23.2316   26.1096   36.0990 C   0  0  0  0  0  0  0  0  0  0  0  0
   23.3547   27.7873   36.6051 Cl  0  0  0  0  0  0  0  0  0  0  0  0
   20.2252   21.5799   34.7727 C   0  0  0  0  0  0  0  0  0  0  0  0
   19.9643   22.6746   33.7210 C   0  0  0  0  0  0  0  0  0  0  0  0
   25.6101   27.1153   35.2892 H   0  0  0  0  0  0  0  0  0  0  0  0
   32.0668   27.1429   34.4530 H   0  0  0  0  0  0  0  0  0  0  0  0
   33.3284   27.4627   32.3495 H   0  0  0  0  0  0  0  0  0  0  0  0
   32.1496   27.4414   30.1613 H   0  0  0  0  0  0  0  0  0  0  0  0
   29.7983   26.8254   30.0886 H   0  0  0  0  0  0  0  0  0  0  0  0
   27.8914   25.7239   30.2072 H   0  0  0  0  0  0  0  0  0  0  0  0
   26.4124   26.3493   30.9738 H   0  0  0  0  0  0  0  0  0  0  0  0
   22.6438   21.8440   34.0161 H   0  0  0  0  0  0  0  0  0  0  0  0
   23.3786   21.4515   35.6153 H   0  0  0  0  0  0  0  0  0  0  0  0
   19.9980   23.5156   36.4135 H   0  0  0  0  0  0  0  0  0  0  0  0
   21.1518   22.8569   37.6326 H   0  0  0  0  0  0  0  0  0  0  0  0
   20.4771   20.6334   34.2467 H   0  0  0  0  0  0  0  0  0  0  0  0
   19.2821   21.3887   35.3294 H   0  0  0  0  0  0  0  0  0  0  0  0
   19.1450   22.3411   33.0501 H   0  0  0  0  0  0  0  0  0  0  0  0
   19.6478   23.6275   34.1898 H   0  0  0  0  0  0  0  0  0  0  0  0
   20.8578   22.8619   33.0927 H   0  0  0  0  0  0  0  0  0  0  0  0
  1  2  1  0
  2  3  2  0
  2  4  1  0
  4  5  2  0
  5  6  1  0
  6  7  2  0
  7  8  1  0
  8  9  2  0
  9 10  1  0
 10 11  2  0
 11 12  1  0
 12 13  2  0
 13 14  1  0
  1 15  1  0
 15 16  2  0
 16 17  1  0
 17 18  1  0
 18 19  1  0
 19 20  1  0
 20 21  1  0
 21 22  1  0
 22 23  2  0
 23 24  1  0
 19 25  1  0
 25 26  1  0
 13  4  1  0
 23 15  1  0
 12  7  1  0
 21 17  2  0
  1 27  1  0
  8 28  1  0
  9 29  1  0
 10 30  1  0
 11 31  1  0
 14 32  1  0
 14 33  1  0
 18 34  1  0
 18 35  1  0
 20 36  1  0
 20 37  1  0
 25 38  1  0
 25 39  1  0
 26 40  1  0
 26 41  1  0
 26 42  1  0
M  END
$$$$
confid_7
     RDKit          3D

 42 45  0  0  0  0  0  0  0  0999 V2000
   25.3300   26.2600   34.7600 N   0  0  0  0  0  0  0  0  0  0  0  0
   26.1200   25.9200   33.6900 C   0  0  0  0  0  0  0  0  0  0  0  0
   25.6300   25.1100   32.9400 O   0  0  0  0  0  0  0  0  0  0  0  0
   27.5200   26.3800   33.4600 C   0  0  0  0  0  0  0  0  0  0  0  0
   28.1600   26.6300   34.6100 N   0  0  0  0  0  0  0  0  0  0  0  0
   29.4800   26.8500   34.5700 N   0  0  0  0  0  0  0  0  0  0  0  0
   30.1900   26.7800   33.4400 C   0  0  0  0  0  0  0  0  0  0  0  0
   31.5600   27.0500   33.5000 C   0  0  0  0  0  0  0  0  0  0  0  0
   32.2700   27.2400   32.3100 C   0  0  0  0  0  0  0  0  0  0  0  0
   31.6100   27.2500   31.0800 C   0  0  0  0  0  0  0  0  0  0  0  0
   30.2700   26.8700   31.0600 C   0  0  0  0  0  0  0  0  0  0  0  0
   29.5100   26.6900   32.2300 C   0  0  0  0  0  0  0  0  0  0  0  0
   28.1400   26.4100   32.2000 C   0  0  0  0  0  0  0  0  0  0  0  0
   27.4300   26.1300   31.0500 N   0  0  0  0  0  0  0  0  0  0  0  0
   23.8961   26.1017   34.8151 C   0  0  0  0  0  0  0  0  0  0  0  0
   23.1785   25.9102   33.6652 N   0  0  0  0  0  0  0  0  0  0  0  0
   21.8299   25.7976   33.7269 C   0  0  0  0  0  0  0  0  0  0  0  0
   20.8892   25.5510   32.6182 C   0  0  0  0  0  0  0  0  0  0  0  0
   19.5403   25.6441   33.2367 N   0  0  0  0  0  0  0  0  0  0  0  0
   19.7252   25.6685   34.7119 C   0  0  0  0  0  0  0  0  0  0  0  0
   21.1740   25.8647   34.9071 C   0  0  0  0  0  0  0  0  0  0  0  0
   21.8408   26.0443   36.0726 N   0  0  0  0  0  0  0  0  0  0  0  0
   23.1995   26.1752   36.0537 C   0  0  0  0  0  0  0  0  0  0  0  0
   24.0395   26.3980   37.5806 Cl  0  0  0  0  0  0  0  0  0  0  0  0
   18.7406   26.7832   32.7278 C   0  0  0  0  0  0  0  0  0  0  0  0
   19.3555   28.1703   32.9925 C   0  0  0  0  0  0  0  0  0  0  0  0
   25.7970   26.7338   35.5641 H   0  0  0  0  0  0  0  0  0  0  0  0
   32.0668   27.1425   34.4530 H   0  0  0  0  0  0  0  0  0  0  0  0
   33.3288   27.4609   32.3494 H   0  0  0  0  0  0  0  0  0  0  0  0
   32.1515   27.4336   30.1608 H   0  0  0  0  0  0  0  0  0  0  0  0
   29.8039   26.7906   30.0880 H   0  0  0  0  0  0  0  0  0  0  0  0
   26.8601   25.2631   30.9529 H   0  0  0  0  0  0  0  0  0  0  0  0
   27.5769   26.6940   30.1847 H   0  0  0  0  0  0  0  0  0  0  0  0
   21.0426   24.5209   32.2330 H   0  0  0  0  0  0  0  0  0  0  0  0
   21.0505   26.2672   31.7844 H   0  0  0  0  0  0  0  0  0  0  0  0
   19.1377   26.4602   35.2241 H   0  0  0  0  0  0  0  0  0  0  0  0
   19.4312   24.6836   35.1317 H   0  0  0  0  0  0  0  0  0  0  0  0
   17.7286   26.7488   33.1865 H   0  0  0  0  0  0  0  0  0  0  0  0
   18.5936   26.6617   31.6326 H   0  0  0  0  0  0  0  0  0  0  0  0
   20.3443   28.2814   32.5047 H   0  0  0  0  0  0  0  0  0  0  0  0
   18.6834   28.9478   32.5722 H   0  0  0  0  0  0  0  0  0  0  0  0
   19.4645   28.3711   34.0769 H   0  0  0  0  0  0  0  0  0  0  0  0
  1  2  1  0
  2  3  2  0
  2  4  1  0
  4  5  2  0
  5  6  1  0
  6  7  2  0
  7  8  1  0
  8  9  2  0
  9 10  1  0
 10 11  2  0
 11 12  1  0
 12 13  2  0
 13 14  1  0
  1 15  1  0
 15 16  2  0
 16 17  1  0
 17 18  1  0
 18 19  1  0
 19 20  1  0
 20 21  1  0
 21 22  1  0
 22 23  2  0
 23 24  1  0
 19 25  1  0
 25 26  1  0
 13  4  1  0
 23 15  1  0
 12  7  1  0
 21 17  2  0
  1 27  1  0
  8 28  1  0
  9 29  1  0
 10 30  1  0
 11 31  1  0
 14 32  1  0
 14 33  1  0
 18 34  1  0
 18 35  1  0
 20 36  1  0
 20 37  1  0
 25 38  1  0
 25 39  1  0
 26 40  1  0
 26 41  1  0
 26 42  1  0
M  END
$$$$
confid_8
     RDKit          3D

 42 45  0  0  0  0  0  0  0  0999 V2000
   25.3300   26.2600   34.7600 N   0  0  0  0  0  0  0  0  0  0  0  0
   26.1200   25.9200   33.6900 C   0  0  0  0  0  0  0  0  0  0  0  0
   25.6300   25.1100   32.9400 O   0  0  0  0  0  0  0  0  0  0  0  0
   27.5200   26.3800   33.4600 C   0  0  0  0  0  0  0  0  0  0  0  0
   28.1600   26.6300   34.6100 N   0  0  0  0  0  0  0  0  0  0  0  0
   29.4800   26.8500   34.5700 N   0  0  0  0  0  0  0  0  0  0  0  0
   30.1900   26.7800   33.4400 C   0  0  0  0  0  0  0  0  0  0  0  0
   31.5600   27.0500   33.5000 C   0  0  0  0  0  0  0  0  0  0  0  0
   32.2700   27.2400   32.3100 C   0  0  0  0  0  0  0  0  0  0  0  0
   31.6100   27.2500   31.0800 C   0  0  0  0  0  0  0  0  0  0  0  0
   30.2700   26.8700   31.0600 C   0  0  0  0  0  0  0  0  0  0  0  0
   29.5100   26.6900   32.2300 C   0  0  0  0  0  0  0  0  0  0  0  0
   28.1400   26.4100   32.2000 C   0  0  0  0  0  0  0  0  0  0  0  0
   27.4300   26.1300   31.0500 N   0  0  0  0  0  0  0  0  0  0  0  0
   23.8969   26.0969   34.8151 C   0  0  0  0  0  0  0  0  0  0  0  0
   23.1776   25.9290   33.6626 N   0  0  0  0  0  0  0  0  0  0  0  0
   21.8311   25.7950   33.7260 C   0  0  0  0  0  0  0  0  0  0  0  0
   20.8815   25.6432   32.6078 C   0  0  0  0  0  0  0  0  0  0  0  0
   19.5617   25.4253   33.2570 N   0  0  0  0  0  0  0  0  0  0  0  0
   19.7202   25.7276   34.7042 C   0  0  0  0  0  0  0  0  0  0  0  0
   21.1764   25.8441   34.9079 C   0  0  0  0  0  0  0  0  0  0  0  0
   21.8425   26.0278   36.0732 N   0  0  0  0  0  0  0  0  0  0  0  0
   23.2018   26.1529   36.0553 C   0  0  0  0  0  0  0  0  0  0  0  0
   24.0432   26.3613   37.5833 Cl  0  0  0  0  0  0  0  0  0  0  0  0
   18.9981   24.0792   32.9989 C   0  0  0  0  0  0  0  0  0  0  0  0
   19.8562   22.9114   33.5205 C   0  0  0  0  0  0  0  0  0  0  0  0
   25.7963   26.7327   35.5653 H   0  0  0  0  0  0  0  0  0  0  0  0
   32.0668   27.1429   34.4530 H   0  0  0  0  0  0  0  0  0  0  0  0
   33.3284   27.4627   32.3495 H   0  0  0  0  0  0  0  0  0  0  0  0
   32.1496   27.4414   30.1613 H   0  0  0  0  0  0  0  0  0  0  0  0
   29.7983   26.8254   30.0886 H   0  0  0  0  0  0  0  0  0  0  0  0
   27.8914   25.7241   30.2071 H   0  0  0  0  0  0  0  0  0  0  0  0
   26.4123   26.3490   30.9739 H   0  0  0  0  0  0  0  0  0  0  0  0
   21.1874   24.8204   31.9268 H   0  0  0  0  0  0  0  0  0  0  0  0
   20.8493   26.5888   32.0265 H   0  0  0  0  0  0  0  0  0  0  0  0
   19.2421   26.7050   34.9261 H   0  0  0  0  0  0  0  0  0  0  0  0
   19.2787   24.9586   35.3736 H   0  0  0  0  0  0  0  0  0  0  0  0
   18.8509   23.9520   31.9043 H   0  0  0  0  0  0  0  0  0  0  0  0
   17.9891   24.0143   33.4612 H   0  0  0  0  0  0  0  0  0  0  0  0
   20.8560   22.8910   33.0430 H   0  0  0  0  0  0  0  0  0  0  0  0
   19.9836   22.9546   34.6205 H   0  0  0  0  0  0  0  0  0  0  0  0
   19.3477   21.9547   33.2779 H   0  0  0  0  0  0  0  0  0  0  0  0
  1  2  1  0
  2  3  2  0
  2  4  1  0
  4  5  2  0
  5  6  1  0
  6  7  2  0
  7  8  1  0
  8  9  2  0
  9 10  1  0
 10 11  2  0
 11 12  1  0
 12 13  2  0
 13 14  1  0
  1 15  1  0
 15 16  2  0
 16 17  1  0
 17 18  1  0
 18 19  1  0
 19 20  1  0
 20 21  1  0
 21 22  1  0
 22 23  2  0
 23 24  1  0
 19 25  1  0
 25 26  1  0
 13  4  1  0
 23 15  1  0
 12  7  1  0
 21 17  2  0
  1 27  1  0
  8 28  1  0
  9 29  1  0
 10 30  1  0
 11 31  1  0
 14 32  1  0
 14 33  1  0
 18 34  1  0
 18 35  1  0
 20 36  1  0
 20 37  1  0
 25 38  1  0
 25 39  1  0
 26 40  1  0
 26 41  1  0
 26 42  1  0
M  END
$$$$
confid_9
     RDKit          3D

 42 45  0  0  0  0  0  0  0  0999 V2000
   25.3300   26.2600   34.7600 N   0  0  0  0  0  0  0  0  0  0  0  0
   26.1200   25.9200   33.6900 C   0  0  0  0  0  0  0  0  0  0  0  0
   25.6300   25.1100   32.9400 O   0  0  0  0  0  0  0  0  0  0  0  0
   27.5200   26.3800   33.4600 C   0  0  0  0  0  0  0  0  0  0  0  0
   28.1600   26.6300   34.6100 N   0  0  0  0  0  0  0  0  0  0  0  0
   29.4800   26.8500   34.5700 N   0  0  0  0  0  0  0  0  0  0  0  0
   30.1900   26.7800   33.4400 C   0  0  0  0  0  0  0  0  0  0  0  0
   31.5600   27.0500   33.5000 C   0  0  0  0  0  0  0  0  0  0  0  0
   32.2700   27.2400   32.3100 C   0  0  0  0  0  0  0  0  0  0  0  0
   31.6100   27.2500   31.0800 C   0  0  0  0  0  0  0  0  0  0  0  0
   30.2700   26.8700   31.0600 C   0  0  0  0  0  0  0  0  0  0  0  0
   29.5100   26.6900   32.2300 C   0  0  0  0  0  0  0  0  0  0  0  0
   28.1400   26.4100   32.2000 C   0  0  0  0  0  0  0  0  0  0  0  0
   27.4300   26.1300   31.0500 N   0  0  0  0  0  0  0  0  0  0  0  0
   23.8966   26.0991   34.8148 C   0  0  0  0  0  0  0  0  0  0  0  0
   23.1776   25.9237   33.6633 N   0  0  0  0  0  0  0  0  0  0  0  0
   21.8293   25.8044   33.7256 C   0  0  0  0  0  0  0  0  0  0  0  0
   20.8889   25.5843   32.6138 C   0  0  0  0  0  0  0  0  0  0  0  0
   19.5374   25.6342   33.2354 N   0  0  0  0  0  0  0  0  0  0  0  0
   19.7274   25.6680   34.7098 C   0  0  0  0  0  0  0  0  0  0  0  0
   21.1756   25.8537   34.9052 C   0  0  0  0  0  0  0  0  0  0  0  0
   21.8429   26.0222   36.0724 N   0  0  0  0  0  0  0  0  0  0  0  0
   23.2015   26.1550   36.0547 C   0  0  0  0  0  0  0  0  0  0  0  0
   24.0428   26.3582   37.5834 Cl  0  0  0  0  0  0  0  0  0  0  0  0
   18.6786   24.5075   32.8229 C   0  0  0  0  0  0  0  0  0  0  0  0
   18.2239   24.6742   31.3748 C   0  0  0  0  0  0  0  0  0  0  0  0
   25.7964   26.7325   35.5653 H   0  0  0  0  0  0  0  0  0  0  0  0
   32.0668   27.1429   34.4530 H   0  0  0  0  0  0  0  0  0  0  0  0
   33.3284   27.4627   32.3495 H   0  0  0  0  0  0  0  0  0  0  0  0
   32.1496   27.4414   30.1613 H   0  0  0  0  0  0  0  0  0  0  0  0
   29.7983   26.8254   30.0886 H   0  0  0  0  0  0  0  0  0  0  0  0
   27.8914   25.7241   30.2071 H   0  0  0  0  0  0  0  0  0  0  0  0
   26.4123   26.3490   30.9739 H   0  0  0  0  0  0  0  0  0  0  0  0
   21.1138   24.6038   32.1378 H   0  0  0  0  0  0  0  0  0  0  0  0
   20.9870   26.3987   31.8657 H   0  0  0  0  0  0  0  0  0  0  0  0
   19.4134   24.7234   35.2092 H   0  0  0  0  0  0  0  0  0  0  0  0
   19.1712   26.5272   35.1397 H   0  0  0  0  0  0  0  0  0  0  0  0
   19.2045   23.5341   32.9486 H   0  0  0  0  0  0  0  0  0  0  0  0
   17.7635   24.4840   33.4561 H   0  0  0  0  0  0  0  0  0  0  0  0
   19.0904   24.6247   30.6828 H   0  0  0  0  0  0  0  0  0  0  0  0
   17.7100   25.6506   31.2473 H   0  0  0  0  0  0  0  0  0  0  0  0
   17.5162   23.8602   31.1108 H   0  0  0  0  0  0  0  0  0  0  0  0
  1  2  1  0
  2  3  2  0
  2  4  1  0
  4  5  2  0
  5  6  1  0
  6  7  2  0
  7  8  1  0
  8  9  2  0
  9 10  1  0
 10 11  2  0
 11 12  1  0
 12 13  2  0
 13 14  1  0
  1 15  1  0
 15 16  2  0
 16 17  1  0
 17 18  1  0
 18 19  1  0
 19 20  1  0
 20 21  1  0
 21 22  1  0
 22 23  2  0
 23 24  1  0
 19 25  1  0
 25 26  1  0
 13  4  1  0
 23 15  1  0
 12  7  1  0
 21 17  2  0
  1 27  1  0
  8 28  1  0
  9 29  1  0
 10 30  1  0
 11 31  1  0
 14 32  1  0
 14 33  1  0
 18 34  1  0
 18 35  1  0
 20 36  1  0
 20 37  1  0
 25 38  1  0
 25 39  1  0
 26 40  1  0
 26 41  1  0
 26 42  1  0
M  END
$$$$
confid_10
     RDKit          3D

 42 45  0  0  0  0  0  0  0  0999 V2000
   25.3300   26.2600   34.7600 N   0  0  0  0  0  0  0  0  0  0  0  0
   26.1200   25.9200   33.6900 C   0  0  0  0  0  0  0  0  0  0  0  0
   25.6300   25.1100   32.9400 O   0  0  0  0  0  0  0  0  0  0  0  0
   27.5200   26.3800   33.4600 C   0  0  0  0  0  0  0  0  0  0  0  0
   28.1600   26.6300   34.6100 N   0  0  0  0  0  0  0  0  0  0  0  0
   29.4800   26.8500   34.5700 N   0  0  0  0  0  0  0  0  0  0  0  0
   30.1900   26.7800   33.4400 C   0  0  0  0  0  0  0  0  0  0  0  0
   31.5600   27.0500   33.5000 C   0  0  0  0  0  0  0  0  0  0  0  0
   32.2700   27.2400   32.3100 C   0  0  0  0  0  0  0  0  0  0  0  0
   31.6100   27.2500   31.0800 C   0  0  0  0  0  0  0  0  0  0  0  0
   30.2700   26.8700   31.0600 C   0  0  0  0  0  0  0  0  0  0  0  0
   29.5100   26.6900   32.2300 C   0  0  0  0  0  0  0  0  0  0  0  0
   28.1400   26.4100   32.2000 C   0  0  0  0  0  0  0  0  0  0  0  0
   27.4300   26.1300   31.0500 N   0  0  0  0  0  0  0  0  0  0  0  0
   23.8966   26.0988   34.8151 C   0  0  0  0  0  0  0  0  0  0  0  0
   23.1775   25.9230   33.6636 N   0  0  0  0  0  0  0  0  0  0  0  0
   21.8292   25.8035   33.7261 C   0  0  0  0  0  0  0  0  0  0  0  0
   20.8889   25.5817   32.6143 C   0  0  0  0  0  0  0  0  0  0  0  0
   19.5383   25.6322   33.2345 N   0  0  0  0  0  0  0  0  0  0  0  0
   19.7278   25.6673   34.7105 C   0  0  0  0  0  0  0  0  0  0  0  0
   21.1759   25.8521   34.9059 C   0  0  0  0  0  0  0  0  0  0  0  0
   21.8432   26.0213   36.0729 N   0  0  0  0  0  0  0  0  0  0  0  0
   23.2017   26.1546   36.0550 C   0  0  0  0  0  0  0  0  0  0  0  0
   24.0432   26.3584   37.5836 Cl  0  0  0  0  0  0  0  0  0  0  0  0
   18.6949   24.5040   32.7950 C   0  0  0  0  0  0  0  0  0  0  0  0
   17.2330   24.7437   33.1648 C   0  0  0  0  0  0  0  0  0  0  0  0
   25.7964   26.7327   35.5652 H   0  0  0  0  0  0  0  0  0  0  0  0
   32.0668   27.1429   34.4530 H   0  0  0  0  0  0  0  0  0  0  0  0
   33.3284   27.4627   32.3495 H   0  0  0  0  0  0  0  0  0  0  0  0
   32.1496   27.4414   30.1613 H   0  0  0  0  0  0  0  0  0  0  0  0
   29.7983   26.8254   30.0886 H   0  0  0  0  0  0  0  0  0  0  0  0
   27.8914   25.7241   30.2071 H   0  0  0  0  0  0  0  0  0  0  0  0
   26.4123   26.3490   30.9739 H   0  0  0  0  0  0  0  0  0  0  0  0
   21.1128   24.5982   32.1422 H   0  0  0  0  0  0  0  0  0  0  0  0
   20.9872   26.3937   31.8637 H   0  0  0  0  0  0  0  0  0  0  0  0
   19.1731   26.5285   35.1385 H   0  0  0  0  0  0  0  0  0  0  0  0
   19.4117   24.7259   35.2129 H   0  0  0  0  0  0  0  0  0  0  0  0
   18.7446   24.4102   31.6870 H   0  0  0  0  0  0  0  0  0  0  0  0
   19.0476   23.5435   33.2340 H   0  0  0  0  0  0  0  0  0  0  0  0
   17.1054   24.7667   34.2672 H   0  0  0  0  0  0  0  0  0  0  0  0
   16.6062   23.9237   32.7553 H   0  0  0  0  0  0  0  0  0  0  0  0
   16.8853   25.7079   32.7367 H   0  0  0  0  0  0  0  0  0  0  0  0
  1  2  1  0
  2  3  2  0
  2  4  1  0
  4  5  2  0
  5  6  1  0
  6  7  2  0
  7  8  1  0
  8  9  2  0
  9 10  1  0
 10 11  2  0
 11 12  1  0
 12 13  2  0
 13 14  1  0
  1 15  1  0
 15 16  2  0
 16 17  1  0
 17 18  1  0
 18 19  1  0
 19 20  1  0
 20 21  1  0
 21 22  1  0
 22 23  2  0
 23 24  1  0
 19 25  1  0
 25 26  1  0
 13  4  1  0
 23 15  1  0
 12  7  1  0
 21 17  2  0
  1 27  1  0
  8 28  1  0
  9 29  1  0
 10 30  1  0
 11 31  1  0
 14 32  1  0
 14 33  1  0
 18 34  1  0
 18 35  1  0
 20 36  1  0
 20 37  1  0
 25 38  1  0
 25 39  1  0
 26 40  1  0
 26 41  1  0
 26 42  1  0
M  END
$$$$
