confid_0
     RDKit          3D

 43 47  0  0  0  0  0  0  0  0999 V2000
   25.3300   26.2600   34.7600 N   0  0  0  0  0  0  0  0  0  0  0  0
   26.1200   25.9200   33.6900 C   0  0  0  0  0  0  0  0  0  0  0  0
   25.6300   25.1100   32.9400 O   0  0  0  0  0  0  0  0  0  0  0  0
   27.5200   26.3800   33.4600 C   0  0  0  0  0  0  0  0  0  0  0  0
   28.1600   26.6300   34.6100 N   0  0  0  0  0  0  0  0  0  0  0  0
   29.4800   26.8500   34.5700 N   0  0  0  0  0  0  0  0  0  0  0  0
   30.1900   26.7800   33.4400 C   0  0  0  0  0  0  0  0  0  0  0  0
   31.5600   27.0500   33.5000 C   0  0  0  0  0  0  0  0  0  0  0  0
   32.2700   27.2400   32.3100 C   0  0  0  0  0  0  0  0  0  0  0  0
   31.6100   27.2500   31.0800 C   0  0  0  0  0  0  0  0  0  0  0  0
   30.2700   26.8700   31.0600 C   0  0  0  0  0  0  0  0  0  0  0  0
   29.5100   26.6900   32.2300 C   0  0  0  0  0  0  0  0  0  0  0  0
   28.1400   26.4100   32.2000 C   0  0  0  0  0  0  0  0  0  0  0  0
   27.4300   26.1300   31.0500 N   0  0  0  0  0  0  0  0  0  0  0  0
   27.4222   25.0912   29.9962 C   0  0  0  0  0  0  0  0  0  0  0  0
   26.2985   25.6899   29.2216 C   0  0  0  0  0  0  0  0  0  0  0  0
   26.6469   26.1584   27.9168 O   0  0  0  0  0  0  0  0  0  0  0  0
   25.7029   25.6816   27.0108 C   0  0  0  0  0  0  0  0  0  0  0  0
   25.6798   25.9083   25.6369 C   0  0  0  0  0  0  0  0  0  0  0  0
   24.6326   25.3414   24.8775 C   0  0  0  0  0  0  0  0  0  0  0  0
   24.5852   25.5415   23.3909 C   0  0  0  0  0  0  0  0  0  0  0  0
   23.6479   24.5468   25.5185 C   0  0  0  0  0  0  0  0  0  0  0  0
   22.6479   23.9799   24.7971 F   0  0  0  0  0  0  0  0  0  0  0  0
   23.6962   24.3350   26.9074 C   0  0  0  0  0  0  0  0  0  0  0  0
   24.7370   24.9190   27.6238 C   0  0  0  0  0  0  0  0  0  0  0  0
   25.0518   24.8791   29.0369 C   0  0  0  0  0  0  0  0  0  0  0  0
   24.4001   24.2777   29.9317 O   0  0  0  0  0  0  0  0  0  0  0  0
   26.3124   26.7302   30.2885 C   0  0  0  0  0  0  0  0  0  0  0  0
   24.3716   25.8587   34.8761 H   0  0  0  0  0  0  0  0  0  0  0  0
   25.6646   26.9500   35.4684 H   0  0  0  0  0  0  0  0  0  0  0  0
   32.0667   27.1429   34.4530 H   0  0  0  0  0  0  0  0  0  0  0  0
   33.3284   27.4628   32.3495 H   0  0  0  0  0  0  0  0  0  0  0  0
   32.1491   27.4418   30.1612 H   0  0  0  0  0  0  0  0  0  0  0  0
   29.7870   26.8242   30.0935 H   0  0  0  0  0  0  0  0  0  0  0  0
   28.3782   25.0776   29.4296 H   0  0  0  0  0  0  0  0  0  0  0  0
   27.1797   24.0953   30.4295 H   0  0  0  0  0  0  0  0  0  0  0  0
   26.4532   26.5073   25.1729 H   0  0  0  0  0  0  0  0  0  0  0  0
   23.5593   25.8301   23.0787 H   0  0  0  0  0  0  0  0  0  0  0  0
   25.2819   26.3445   23.0687 H   0  0  0  0  0  0  0  0  0  0  0  0
   24.8687   24.5970   22.8812 H   0  0  0  0  0  0  0  0  0  0  0  0
   22.9475   23.7323   27.4050 H   0  0  0  0  0  0  0  0  0  0  0  0
   25.3800   26.7593   30.8937 H   0  0  0  0  0  0  0  0  0  0  0  0
   26.5934   27.7366   29.9062 H   0  0  0  0  0  0  0  0  0  0  0  0
  1  2  1  0
  2  3  2  0
  2  4  1  0
  4  5  2  0
  5  6  1  0
  6  7  2  0
  7  8  1  0
  8  9  2  0
  9 10  1  0
 10 11  2  0
 11 12  1  0
 12 13  2  0
 13 14  1  0
 14 15  1  0
 15 16  1  0
 16 17  1  0
 17 18  1  0
 18 19  2  0
 19 20  1  0
 20 21  1  0
 20 22  2  0
 22 23  1  0
 22 24  1  0
 24 25  2  0
 25 26  1  0
 26 27  2  0
 16 28  1  0
 13  4  1  0
 28 14  1  0
 12  7  1  0
 26 16  1  0
 25 18  1  0
  1 29  1  0
  1 30  1  0
  8 31  1  0
  9 32  1  0
 10 33  1  0
 11 34  1  0
 15 35  1  0
 15 36  1  0
 19 37  1  0
 21 38  1  0
 21 39  1  0
 21 40  1  0
 24 41  1  0
 28 42  1  0
 28 43  1  0
M  END
$$$$
confid_1
     RDKit          3D

 43 47  0  0  0  0  0  0  0  0999 V2000
   25.3300   26.2600   34.7600 N   0  0  0  0  0  0  0  0  0  0  0  0
   26.1200   25.9200   33.6900 C   0  0  0  0  0  0  0  0  0  0  0  0
   25.6300   25.1100   32.9400 O   0  0  0  0  0  0  0  0  0  0  0  0
   27.5200   26.3800   33.4600 C   0  0  0  0  0  0  0  0  0  0  0  0
   28.1600   26.6300   34.6100 N   0  0  0  0  0  0  0  0  0  0  0  0
   29.4800   26.8500   34.5700 N   0  0  0  0  0  0  0  0  0  0  0  0
   30.1900   26.7800   33.4400 C   0  0  0  0  0  0  0  0  0  0  0  0
   31.5600   27.0500   33.5000 C   0  0  0  0  0  0  0  0  0  0  0  0
   32.2700   27.2400   32.3100 C   0  0  0  0  0  0  0  0  0  0  0  0
   31.6100   27.2500   31.0800 C   0  0  0  0  0  0  0  0  0  0  0  0
   30.2700   26.8700   31.0600 C   0  0  0  0  0  0  0  0  0  0  0  0
   29.5100   26.6900   32.2300 C   0  0  0  0  0  0  0  0  0  0  0  0
   28.1400   26.4100   32.2000 C   0  0  0  0  0  0  0  0  0  0  0  0
   27.4300   26.1300   31.0500 N   0  0  0  0  0  0  0  0  0  0  0  0
   27.4244   25.0937   29.9937 C   0  0  0  0  0  0  0  0  0  0  0  0
   26.3018   25.6938   29.2189 C   0  0  0  0  0  0  0  0  0  0  0  0
   25.1128   24.9021   29.1663 O   0  0  0  0  0  0  0  0  0  0  0  0
   24.6793   24.8453   27.8442 C   0  0  0  0  0  0  0  0  0  0  0  0
   23.5582   24.1728   27.3645 C   0  0  0  0  0  0  0  0  0  0  0  0
   23.2754   24.2339   25.9821 C   0  0  0  0  0  0  0  0  0  0  0  0
   22.0908   23.5027   25.4215 C   0  0  0  0  0  0  0  0  0  0  0  0
   24.1388   24.9546   25.1177 C   0  0  0  0  0  0  0  0  0  0  0  0
   23.8894   25.0041   23.7846 F   0  0  0  0  0  0  0  0  0  0  0  0
   25.2636   25.6243   25.6299 C   0  0  0  0  0  0  0  0  0  0  0  0
   25.5034   25.5505   26.9991 C   0  0  0  0  0  0  0  0  0  0  0  0
   26.5628   26.1198   27.8060 C   0  0  0  0  0  0  0  0  0  0  0  0
   27.5166   26.8323   27.3941 O   0  0  0  0  0  0  0  0  0  0  0  0
   26.3180   26.7353   30.2846 C   0  0  0  0  0  0  0  0  0  0  0  0
   25.6646   26.9501   35.4684 H   0  0  0  0  0  0  0  0  0  0  0  0
   24.3716   25.8587   34.8761 H   0  0  0  0  0  0  0  0  0  0  0  0
   32.0667   27.1429   34.4530 H   0  0  0  0  0  0  0  0  0  0  0  0
   33.3284   27.4629   32.3495 H   0  0  0  0  0  0  0  0  0  0  0  0
   32.1490   27.4420   30.1612 H   0  0  0  0  0  0  0  0  0  0  0  0
   29.7870   26.8250   30.0935 H   0  0  0  0  0  0  0  0  0  0  0  0
   28.3864   25.0745   29.4372 H   0  0  0  0  0  0  0  0  0  0  0  0
   27.1700   24.0984   30.4210 H   0  0  0  0  0  0  0  0  0  0  0  0
   22.9252   23.6185   28.0460 H   0  0  0  0  0  0  0  0  0  0  0  0
   21.5231   24.1672   24.7365 H   0  0  0  0  0  0  0  0  0  0  0  0
   21.4025   23.1703   26.2277 H   0  0  0  0  0  0  0  0  0  0  0  0
   22.4386   22.6112   24.8588 H   0  0  0  0  0  0  0  0  0  0  0  0
   25.9262   26.1787   24.9780 H   0  0  0  0  0  0  0  0  0  0  0  0
   26.6026   27.7448   29.9126 H   0  0  0  0  0  0  0  0  0  0  0  0
   25.3807   26.7593   30.8820 H   0  0  0  0  0  0  0  0  0  0  0  0
  1  2  1  0
  2  3  2  0
  2  4  1  0
  4  5  2  0
  5  6  1  0
  6  7  2  0
  7  8  1  0
  8  9  2  0
  9 10  1  0
 10 11  2  0
 11 12  1  0
 12 13  2  0
 13 14  1  0
 14 15  1  0
 15 16  1  0
 16 17  1  0
 17 18  1  0
 18 19  2  0
 19 20  1  0
 20 21  1  0
 20 22  2  0
 22 23  1  0
 22 24  1  0
 24 25  2  0
 25 26  1  0
 26 27  2  0
 16 28  1  0
 13  4  1  0
 28 14  1  0
 12  7  1  0
 26 16  1  0
 25 18  1  0
  1 29  1  0
  1 30  1  0
  8 31  1  0
  9 32  1  0
 10 33  1  0
 11 34  1  0
 15 35  1  0
 15 36  1  0
 19 37  1  0
 21 38  1  0
 21 39  1  0
 21 40  1  0
 24 41  1  0
 28 42  1  0
 28 43  1  0
M  END
$$$$
confid_2
     RDKit          3D

 43 47  0  0  0  0  0  0  0  0999 V2000
   25.3300   26.2600   34.7600 N   0  0  0  0  0  0  0  0  0  0  0  0
   26.1200   25.9200   33.6900 C   0  0  0  0  0  0  0  0  0  0  0  0
   25.6300   25.1100   32.9400 O   0  0  0  0  0  0  0  0  0  0  0  0
   27.5200   26.3800   33.4600 C   0  0  0  0  0  0  0  0  0  0  0  0
   28.1600   26.6300   34.6100 N   0  0  0  0  0  0  0  0  0  0  0  0
   29.4800   26.8500   34.5700 N   0  0  0  0  0  0  0  0  0  0  0  0
   30.1900   26.7800   33.4400 C   0  0  0  0  0  0  0  0  0  0  0  0
   31.5600   27.0500   33.5000 C   0  0  0  0  0  0  0  0  0  0  0  0
   32.2700   27.2400   32.3100 C   0  0  0  0  0  0  0  0  0  0  0  0
   31.6100   27.2500   31.0800 C   0  0  0  0  0  0  0  0  0  0  0  0
   30.2700   26.8700   31.0600 C   0  0  0  0  0  0  0  0  0  0  0  0
   29.5100   26.6900   32.2300 C   0  0  0  0  0  0  0  0  0  0  0  0
   28.1400   26.4100   32.2000 C   0  0  0  0  0  0  0  0  0  0  0  0
   27.4300   26.1300   31.0500 N   0  0  0  0  0  0  0  0  0  0  0  0
   27.6575   26.3784   29.5916 C   0  0  0  0  0  0  0  0  0  0  0  0
   26.2623   26.2071   29.1454 C   0  0  0  0  0  0  0  0  0  0  0  0
   26.0387   25.1033   28.2629 O   0  0  0  0  0  0  0  0  0  0  0  0
   25.2711   25.5458   27.1886 C   0  0  0  0  0  0  0  0  0  0  0  0
   24.8364   24.7832   26.1073 C   0  0  0  0  0  0  0  0  0  0  0  0
   24.0578   25.4101   25.1096 C   0  0  0  0  0  0  0  0  0  0  0  0
   23.5905   24.6295   23.9161 C   0  0  0  0  0  0  0  0  0  0  0  0
   23.7535   26.7913   25.2178 C   0  0  0  0  0  0  0  0  0  0  0  0
   23.0232   27.4101   24.2558 F   0  0  0  0  0  0  0  0  0  0  0  0
   24.2056   27.5364   26.3208 C   0  0  0  0  0  0  0  0  0  0  0  0
   24.9610   26.8816   27.2893 C   0  0  0  0  0  0  0  0  0  0  0  0
   25.5598   27.3727   28.5133 C   0  0  0  0  0  0  0  0  0  0  0  0
   25.4982   28.5509   28.9553 O   0  0  0  0  0  0  0  0  0  0  0  0
   26.0207   25.9334   30.5745 C   0  0  0  0  0  0  0  0  0  0  0  0
   24.3715   25.8589   34.8759 H   0  0  0  0  0  0  0  0  0  0  0  0
   25.6646   26.9500   35.4684 H   0  0  0  0  0  0  0  0  0  0  0  0
   32.0670   27.1419   34.4530 H   0  0  0  0  0  0  0  0  0  0  0  0
   33.3294   27.4583   32.3492 H   0  0  0  0  0  0  0  0  0  0  0  0
   32.1579   27.4232   30.1618 H   0  0  0  0  0  0  0  0  0  0  0  0
   29.9161   26.7666   30.0703 H   0  0  0  0  0  0  0  0  0  0  0  0
   27.9971   27.4236   29.4050 H   0  0  0  0  0  0  0  0  0  0  0  0
   28.3207   25.6014   29.1463 H   0  0  0  0  0  0  0  0  0  0  0  0
   25.0963   23.7341   26.0441 H   0  0  0  0  0  0  0  0  0  0  0  0
   22.5136   24.8272   23.7304 H   0  0  0  0  0  0  0  0  0  0  0  0
   23.7180   23.5371   24.0725 H   0  0  0  0  0  0  0  0  0  0  0  0
   24.1757   24.9331   23.0231 H   0  0  0  0  0  0  0  0  0  0  0  0
   23.9757   28.5901   26.4127 H   0  0  0  0  0  0  0  0  0  0  0  0
   25.6895   24.8751   30.6782 H   0  0  0  0  0  0  0  0  0  0  0  0
   25.3262   26.6748   31.0325 H   0  0  0  0  0  0  0  0  0  0  0  0
  1  2  1  0
  2  3  2  0
  2  4  1  0
  4  5  2  0
  5  6  1  0
  6  7  2  0
  7  8  1  0
  8  9  2  0
  9 10  1  0
 10 11  2  0
 11 12  1  0
 12 13  2  0
 13 14  1  0
 14 15  1  0
 15 16  1  0
 16 17  1  0
 17 18  1  0
 18 19  2  0
 19 20  1  0
 20 21  1  0
 20 22  2  0
 22 23  1  0
 22 24  1  0
 24 25  2  0
 25 26  1  0
 26 27  2  0
 16 28  1  0
 13  4  1  0
 28 14  1  0
 12  7  1  0
 26 16  1  0
 25 18  1  0
  1 29  1  0
  1 30  1  0
  8 31  1  0
  9 32  1  0
 10 33  1  0
 11 34  1  0
 15 35  1  0
 15 36  1  0
 19 37  1  0
 21 38  1  0
 21 39  1  0
 21 40  1  0
 24 41  1  0
 28 42  1  0
 28 43  1  0
M  END
$$$$
confid_3
     RDKit          3D

 43 47  0  0  0  0  0  0  0  0999 V2000
   25.3300   26.2600   34.7600 N   0  0  0  0  0  0  0  0  0  0  0  0
   26.1200   25.9200   33.6900 C   0  0  0  0  0  0  0  0  0  0  0  0
   25.6300   25.1100   32.9400 O   0  0  0  0  0  0  0  0  0  0  0  0
   27.5200   26.3800   33.4600 C   0  0  0  0  0  0  0  0  0  0  0  0
   28.1600   26.6300   34.6100 N   0  0  0  0  0  0  0  0  0  0  0  0
   29.4800   26.8500   34.5700 N   0  0  0  0  0  0  0  0  0  0  0  0
   30.1900   26.7800   33.4400 C   0  0  0  0  0  0  0  0  0  0  0  0
   31.5600   27.0500   33.5000 C   0  0  0  0  0  0  0  0  0  0  0  0
   32.2700   27.2400   32.3100 C   0  0  0  0  0  0  0  0  0  0  0  0
   31.6100   27.2500   31.0800 C   0  0  0  0  0  0  0  0  0  0  0  0
   30.2700   26.8700   31.0600 C   0  0  0  0  0  0  0  0  0  0  0  0
   29.5100   26.6900   32.2300 C   0  0  0  0  0  0  0  0  0  0  0  0
   28.1400   26.4100   32.2000 C   0  0  0  0  0  0  0  0  0  0  0  0
   27.4300   26.1300   31.0500 N   0  0  0  0  0  0  0  0  0  0  0  0
   26.3180   26.7353   30.2846 C   0  0  0  0  0  0  0  0  0  0  0  0
   26.3018   25.6938   29.2189 C   0  0  0  0  0  0  0  0  0  0  0  0
   25.1128   24.9021   29.1663 O   0  0  0  0  0  0  0  0  0  0  0  0
   24.6793   24.8453   27.8442 C   0  0  0  0  0  0  0  0  0  0  0  0
   23.5581   24.1727   27.3645 C   0  0  0  0  0  0  0  0  0  0  0  0
   23.2754   24.2339   25.9821 C   0  0  0  0  0  0  0  0  0  0  0  0
   22.0908   23.5026   25.4216 C   0  0  0  0  0  0  0  0  0  0  0  0
   24.1388   24.9545   25.1177 C   0  0  0  0  0  0  0  0  0  0  0  0
   23.8894   25.0041   23.7846 F   0  0  0  0  0  0  0  0  0  0  0  0
   25.2636   25.6243   25.6299 C   0  0  0  0  0  0  0  0  0  0  0  0
   25.5034   25.5505   26.9991 C   0  0  0  0  0  0  0  0  0  0  0  0
   26.5628   26.1198   27.8060 C   0  0  0  0  0  0  0  0  0  0  0  0
   27.5166   26.8323   27.3941 O   0  0  0  0  0  0  0  0  0  0  0  0
   27.4244   25.0937   29.9937 C   0  0  0  0  0  0  0  0  0  0  0  0
   25.6646   26.9501   35.4684 H   0  0  0  0  0  0  0  0  0  0  0  0
   24.3717   25.8587   34.8761 H   0  0  0  0  0  0  0  0  0  0  0  0
   32.0667   27.1429   34.4530 H   0  0  0  0  0  0  0  0  0  0  0  0
   33.3284   27.4629   32.3495 H   0  0  0  0  0  0  0  0  0  0  0  0
   32.1490   27.4420   30.1612 H   0  0  0  0  0  0  0  0  0  0  0  0
   29.7870   26.8250   30.0935 H   0  0  0  0  0  0  0  0  0  0  0  0
   26.6026   27.7448   29.9127 H   0  0  0  0  0  0  0  0  0  0  0  0
   25.3807   26.7593   30.8820 H   0  0  0  0  0  0  0  0  0  0  0  0
   22.9252   23.6185   28.0460 H   0  0  0  0  0  0  0  0  0  0  0  0
   21.4025   23.1703   26.2277 H   0  0  0  0  0  0  0  0  0  0  0  0
   21.5231   24.1672   24.7365 H   0  0  0  0  0  0  0  0  0  0  0  0
   22.4386   22.6112   24.8588 H   0  0  0  0  0  0  0  0  0  0  0  0
   25.9262   26.1787   24.9780 H   0  0  0  0  0  0  0  0  0  0  0  0
   28.3864   25.0745   29.4372 H   0  0  0  0  0  0  0  0  0  0  0  0
   27.1700   24.0984   30.4210 H   0  0  0  0  0  0  0  0  0  0  0  0
  1  2  1  0
  2  3  2  0
  2  4  1  0
  4  5  2  0
  5  6  1  0
  6  7  2  0
  7  8  1  0
  8  9  2  0
  9 10  1  0
 10 11  2  0
 11 12  1  0
 12 13  2  0
 13 14  1  0
 14 15  1  0
 15 16  1  0
 16 17  1  0
 17 18  1  0
 18 19  2  0
 19 20  1  0
 20 21  1  0
 20 22  2  0
 22 23  1  0
 22 24  1  0
 24 25  2  0
 25 26  1  0
 26 27  2  0
 16 28  1  0
 13  4  1  0
 28 14  1  0
 12  7  1  0
 26 16  1  0
 25 18  1  0
  1 29  1  0
  1 30  1  0
  8 31  1  0
  9 32  1  0
 10 33  1  0
 11 34  1  0
 15 35  1  0
 15 36  1  0
 19 37  1  0
 21 38  1  0
 21 39  1  0
 21 40  1  0
 24 41  1  0
 28 42  1  0
 28 43  1  0
M  END
$$$$
confid_4
     RDKit          3D

 43 47  0  0  0  0  0  0  0  0999 V2000
   25.3300   26.2600   34.7600 N   0  0  0  0  0  0  0  0  0  0  0  0
   26.1200   25.9200   33.6900 C   0  0  0  0  0  0  0  0  0  0  0  0
   25.6300   25.1100   32.9400 O   0  0  0  0  0  0  0  0  0  0  0  0
   27.5200   26.3800   33.4600 C   0  0  0  0  0  0  0  0  0  0  0  0
   28.1600   26.6300   34.6100 N   0  0  0  0  0  0  0  0  0  0  0  0
   29.4800   26.8500   34.5700 N   0  0  0  0  0  0  0  0  0  0  0  0
   30.1900   26.7800   33.4400 C   0  0  0  0  0  0  0  0  0  0  0  0
   31.5600   27.0500   33.5000 C   0  0  0  0  0  0  0  0  0  0  0  0
   32.2700   27.2400   32.3100 C   0  0  0  0  0  0  0  0  0  0  0  0
   31.6100   27.2500   31.0800 C   0  0  0  0  0  0  0  0  0  0  0  0
   30.2700   26.8700   31.0600 C   0  0  0  0  0  0  0  0  0  0  0  0
   29.5100   26.6900   32.2300 C   0  0  0  0  0  0  0  0  0  0  0  0
   28.1400   26.4100   32.2000 C   0  0  0  0  0  0  0  0  0  0  0  0
   27.4300   26.1300   31.0500 N   0  0  0  0  0  0  0  0  0  0  0  0
   26.3124   26.7302   30.2885 C   0  0  0  0  0  0  0  0  0  0  0  0
   26.2985   25.6899   29.2216 C   0  0  0  0  0  0  0  0  0  0  0  0
   26.6469   26.1584   27.9168 O   0  0  0  0  0  0  0  0  0  0  0  0
   25.7029   25.6816   27.0108 C   0  0  0  0  0  0  0  0  0  0  0  0
   25.6798   25.9083   25.6369 C   0  0  0  0  0  0  0  0  0  0  0  0
   24.6326   25.3414   24.8775 C   0  0  0  0  0  0  0  0  0  0  0  0
   24.5851   25.5415   23.3909 C   0  0  0  0  0  0  0  0  0  0  0  0
   23.6479   24.5468   25.5185 C   0  0  0  0  0  0  0  0  0  0  0  0
   22.6479   23.9799   24.7971 F   0  0  0  0  0  0  0  0  0  0  0  0
   23.6962   24.3350   26.9074 C   0  0  0  0  0  0  0  0  0  0  0  0
   24.7370   24.9190   27.6238 C   0  0  0  0  0  0  0  0  0  0  0  0
   25.0518   24.8791   29.0370 C   0  0  0  0  0  0  0  0  0  0  0  0
   24.4001   24.2777   29.9317 O   0  0  0  0  0  0  0  0  0  0  0  0
   27.4222   25.0912   29.9962 C   0  0  0  0  0  0  0  0  0  0  0  0
   24.3716   25.8587   34.8761 H   0  0  0  0  0  0  0  0  0  0  0  0
   25.6646   26.9500   35.4684 H   0  0  0  0  0  0  0  0  0  0  0  0
   32.0667   27.1429   34.4530 H   0  0  0  0  0  0  0  0  0  0  0  0
   33.3284   27.4628   32.3495 H   0  0  0  0  0  0  0  0  0  0  0  0
   32.1491   27.4418   30.1612 H   0  0  0  0  0  0  0  0  0  0  0  0
   29.7870   26.8242   30.0935 H   0  0  0  0  0  0  0  0  0  0  0  0
   26.5934   27.7366   29.9062 H   0  0  0  0  0  0  0  0  0  0  0  0
   25.3800   26.7593   30.8937 H   0  0  0  0  0  0  0  0  0  0  0  0
   26.4532   26.5073   25.1729 H   0  0  0  0  0  0  0  0  0  0  0  0
   23.5592   25.8301   23.0787 H   0  0  0  0  0  0  0  0  0  0  0  0
   25.2819   26.3445   23.0687 H   0  0  0  0  0  0  0  0  0  0  0  0
   24.8687   24.5970   22.8812 H   0  0  0  0  0  0  0  0  0  0  0  0
   22.9475   23.7323   27.4050 H   0  0  0  0  0  0  0  0  0  0  0  0
   28.3782   25.0776   29.4296 H   0  0  0  0  0  0  0  0  0  0  0  0
   27.1797   24.0953   30.4295 H   0  0  0  0  0  0  0  0  0  0  0  0
  1  2  1  0
  2  3  2  0
  2  4  1  0
  4  5  2  0
  5  6  1  0
  6  7  2  0
  7  8  1  0
  8  9  2  0
  9 10  1  0
 10 11  2  0
 11 12  1  0
 12 13  2  0
 13 14  1  0
 14 15  1  0
 15 16  1  0
 16 17  1  0
 17 18  1  0
 18 19  2  0
 19 20  1  0
 20 21  1  0
 20 22  2  0
 22 23  1  0
 22 24  1  0
 24 25  2  0
 25 26  1  0
 26 27  2  0
 16 28  1  0
 13  4  1  0
 28 14  1  0
 12  7  1  0
 26 16  1  0
 25 18  1  0
  1 29  1  0
  1 30  1  0
  8 31  1  0
  9 32  1  0
 10 33  1  0
 11 34  1  0
 15 35  1  0
 15 36  1  0
 19 37  1  0
 21 38  1  0
 21 39  1  0
 21 40  1  0
 24 41  1  0
 28 42  1  0
 28 43  1  0
M  END
$$$$
confid_5
     RDKit          3D

 43 47  0  0  0  0  0  0  0  0999 V2000
   25.3300   26.2600   34.7600 N   0  0  0  0  0  0  0  0  0  0  0  0
   26.1200   25.9200   33.6900 C   0  0  0  0  0  0  0  0  0  0  0  0
   25.6300   25.1100   32.9400 O   0  0  0  0  0  0  0  0  0  0  0  0
   27.5200   26.3800   33.4600 C   0  0  0  0  0  0  0  0  0  0  0  0
   28.1600   26.6300   34.6100 N   0  0  0  0  0  0  0  0  0  0  0  0
   29.4800   26.8500   34.5700 N   0  0  0  0  0  0  0  0  0  0  0  0
   30.1900   26.7800   33.4400 C   0  0  0  0  0  0  0  0  0  0  0  0
   31.5600   27.0500   33.5000 C   0  0  0  0  0  0  0  0  0  0  0  0
   32.2700   27.2400   32.3100 C   0  0  0  0  0  0  0  0  0  0  0  0
   31.6100   27.2500   31.0800 C   0  0  0  0  0  0  0  0  0  0  0  0
   30.2700   26.8700   31.0600 C   0  0  0  0  0  0  0  0  0  0  0  0
   29.5100   26.6900   32.2300 C   0  0  0  0  0  0  0  0  0  0  0  0
   28.1400   26.4100   32.2000 C   0  0  0  0  0  0  0  0  0  0  0  0
   27.4300   26.1300   31.0500 N   0  0  0  0  0  0  0  0  0  0  0  0
   26.0212   25.9318   30.5738 C   0  0  0  0  0  0  0  0  0  0  0  0
   26.2607   26.2198   29.1471 C   0  0  0  0  0  0  0  0  0  0  0  0
   25.6401   27.4132   28.6601 O   0  0  0  0  0  0  0  0  0  0  0  0
   25.0052   27.1213   27.4555 C   0  0  0  0  0  0  0  0  0  0  0  0
   24.2837   28.0076   26.6597 C   0  0  0  0  0  0  0  0  0  0  0  0
   23.7114   27.5258   25.4618 C   0  0  0  0  0  0  0  0  0  0  0  0
   22.9058   28.4427   24.5887 C   0  0  0  0  0  0  0  0  0  0  0  0
   23.8651   26.1611   25.1069 C   0  0  0  0  0  0  0  0  0  0  0  0
   23.3031   25.6811   23.9687 F   0  0  0  0  0  0  0  0  0  0  0  0
   24.5991   25.2890   25.9295 C   0  0  0  0  0  0  0  0  0  0  0  0
   25.1575   25.8028   27.0965 C   0  0  0  0  0  0  0  0  0  0  0  0
   25.9478   25.1630   28.1279 C   0  0  0  0  0  0  0  0  0  0  0  0
   26.3014   23.9541   28.1565 O   0  0  0  0  0  0  0  0  0  0  0  0
   27.6579   26.3775   29.5916 C   0  0  0  0  0  0  0  0  0  0  0  0
   25.6646   26.9500   35.4684 H   0  0  0  0  0  0  0  0  0  0  0  0
   24.3715   25.8589   34.8759 H   0  0  0  0  0  0  0  0  0  0  0  0
   32.0670   27.1419   34.4530 H   0  0  0  0  0  0  0  0  0  0  0  0
   33.3293   27.4584   32.3492 H   0  0  0  0  0  0  0  0  0  0  0  0
   32.1577   27.4237   30.1619 H   0  0  0  0  0  0  0  0  0  0  0  0
   29.9156   26.7691   30.0703 H   0  0  0  0  0  0  0  0  0  0  0  0
   25.6920   24.8730   30.6806 H   0  0  0  0  0  0  0  0  0  0  0  0
   25.3249   26.6733   31.0284 H   0  0  0  0  0  0  0  0  0  0  0  0
   24.1709   29.0407   26.9634 H   0  0  0  0  0  0  0  0  0  0  0  0
   21.8287   28.1910   24.6821 H   0  0  0  0  0  0  0  0  0  0  0  0
   23.2161   28.3280   23.5285 H   0  0  0  0  0  0  0  0  0  0  0  0
   23.0506   29.5058   24.8767 H   0  0  0  0  0  0  0  0  0  0  0  0
   24.7237   24.2469   25.6649 H   0  0  0  0  0  0  0  0  0  0  0  0
   27.9946   27.4230   29.4023 H   0  0  0  0  0  0  0  0  0  0  0  0
   28.3237   25.6007   29.1490 H   0  0  0  0  0  0  0  0  0  0  0  0
  1  2  1  0
  2  3  2  0
  2  4  1  0
  4  5  2  0
  5  6  1  0
  6  7  2  0
  7  8  1  0
  8  9  2  0
  9 10  1  0
 10 11  2  0
 11 12  1  0
 12 13  2  0
 13 14  1  0
 14 15  1  0
 15 16  1  0
 16 17  1  0
 17 18  1  0
 18 19  2  0
 19 20  1  0
 20 21  1  0
 20 22  2  0
 22 23  1  0
 22 24  1  0
 24 25  2  0
 25 26  1  0
 26 27  2  0
 16 28  1  0
 13  4  1  0
 28 14  1  0
 12  7  1  0
 26 16  1  0
 25 18  1  0
  1 29  1  0
  1 30  1  0
  8 31  1  0
  9 32  1  0
 10 33  1  0
 11 34  1  0
 15 35  1  0
 15 36  1  0
 19 37  1  0
 21 38  1  0
 21 39  1  0
 21 40  1  0
 24 41  1  0
 28 42  1  0
 28 43  1  0
M  END
$$$$
