confid_0
     RDKit          3D

 42 45  0  0  0  0  0  0  0  0999 V2000
   24.5700   26.8800   35.5900 N   0  0  0  0  0  0  0  0  0  0  0  0
   25.5000   26.4000   34.6900 C   0  0  0  0  0  0  0  0  0  0  0  0
   25.1700   25.5200   33.9100 O   0  0  0  0  0  0  0  0  0  0  0  0
   26.8400   27.0200   34.7400 C   0  0  0  0  0  0  0  0  0  0  0  0
   27.3800   27.2800   35.9400 N   0  0  0  0  0  0  0  0  0  0  0  0
   28.6200   27.7400   36.0300 N   0  0  0  0  0  0  0  0  0  0  0  0
   29.3800   28.0000   34.9600 C   0  0  0  0  0  0  0  0  0  0  0  0
   30.6700   28.5000   35.1300 C   0  0  0  0  0  0  0  0  0  0  0  0
   31.5400   28.6100   34.0300 C   0  0  0  0  0  0  0  0  0  0  0  0
   31.0900   28.2200   32.7700 C   0  0  0  0  0  0  0  0  0  0  0  0
   29.8000   27.7000   32.6000 C   0  0  0  0  0  0  0  0  0  0  0  0
   28.9600   27.5500   33.7100 C   0  0  0  0  0  0  0  0  0  0  0  0
   27.6600   27.0300   33.5900 C   0  0  0  0  0  0  0  0  0  0  0  0
   27.1600   26.7400   32.3400 N   0  0  0  0  0  0  0  0  0  0  0  0
   23.1728   26.5167   35.5836 C   0  0  0  0  0  0  0  0  0  0  0  0
   22.5975   26.0684   34.4347 N   0  0  0  0  0  0  0  0  0  0  0  0
   21.2835   25.7472   34.3531 C   0  0  0  0  0  0  0  0  0  0  0  0
   20.4592   25.8568   35.4766 C   0  0  0  0  0  0  0  0  0  0  0  0
   18.9863   25.5727   35.3481 C   0  0  0  0  0  0  0  0  0  0  0  0
   18.4181   25.0899   36.6456 C   0  0  0  0  0  0  0  0  0  0  0  0
   17.4065   24.3368   36.6358 O   0  0  0  0  0  0  0  0  0  0  0  0
   18.9982   25.5151   37.8909 N   0  0  0  0  0  0  0  0  0  0  0  0
   18.3965   25.0822   39.1547 C   0  0  0  0  0  0  0  0  0  0  0  0
   20.1047   26.4824   37.8968 C   0  0  0  0  0  0  0  0  0  0  0  0
   21.0103   26.3094   36.6927 C   0  0  0  0  0  0  0  0  0  0  0  0
   22.3784   26.6665   36.7413 C   0  0  0  0  0  0  0  0  0  0  0  0
   23.0972   27.2841   38.2342 Cl  0  0  0  0  0  0  0  0  0  0  0  0
   24.8848   27.5760   36.3022 H   0  0  0  0  0  0  0  0  0  0  0  0
   31.0179   28.7883   36.1144 H   0  0  0  0  0  0  0  0  0  0  0  0
   32.5424   28.9969   34.1597 H   0  0  0  0  0  0  0  0  0  0  0  0
   31.7487   28.3095   31.9157 H   0  0  0  0  0  0  0  0  0  0  0  0
   29.5077   27.3813   31.6086 H   0  0  0  0  0  0  0  0  0  0  0  0
   27.2453   27.4248   31.5561 H   0  0  0  0  0  0  0  0  0  0  0  0
   26.7446   25.8077   32.1268 H   0  0  0  0  0  0  0  0  0  0  0  0
   20.8800   25.4142   33.4054 H   0  0  0  0  0  0  0  0  0  0  0  0
   18.4622   26.5049   35.0492 H   0  0  0  0  0  0  0  0  0  0  0  0
   18.8112   24.8021   34.5653 H   0  0  0  0  0  0  0  0  0  0  0  0
   18.8994   25.5526   40.0262 H   0  0  0  0  0  0  0  0  0  0  0  0
   18.4830   23.9794   39.2506 H   0  0  0  0  0  0  0  0  0  0  0  0
   17.3240   25.3697   39.1791 H   0  0  0  0  0  0  0  0  0  0  0  0
   19.6864   27.5111   37.8828 H   0  0  0  0  0  0  0  0  0  0  0  0
   20.6866   26.3576   38.8333 H   0  0  0  0  0  0  0  0  0  0  0  0
  1  2  1  0
  2  3  2  0
  2  4  1  0
  4  5  2  0
  5  6  1  0
  6  7  2  0
  7  8  1  0
  8  9  2  0
  9 10  1  0
 10 11  2  0
 11 12  1  0
 12 13  2  0
 13 14  1  0
  1 15  1  0
 15 16  2  0
 16 17  1  0
 17 18  2  0
 18 19  1  0
 19 20  1  0
 20 21  2  0
 20 22  1  0
 22 23  1  0
 22 24  1  0
 24 25  1  0
 25 26  2  0
 26 27  1  0
 13  4  1  0
 26 15  1  0
 12  7  1  0
 25 18  1  0
  1 28  1  0
  8 29  1  0
  9 30  1  0
 10 31  1  0
 11 32  1  0
 14 33  1  0
 14 34  1  0
 17 35  1  0
 19 36  1  0
 19 37  1  0
 23 38  1  0
 23 39  1  0
 23 40  1  0
 24 41  1  0
 24 42  1  0
M  END
$$$$
confid_1
     RDKit          3D

 42 45  0  0  0  0  0  0  0  0999 V2000
   24.5700   26.8800   35.5900 N   0  0  0  0  0  0  0  0  0  0  0  0
   25.5000   26.4000   34.6900 C   0  0  0  0  0  0  0  0  0  0  0  0
   25.1700   25.5200   33.9100 O   0  0  0  0  0  0  0  0  0  0  0  0
   26.8400   27.0200   34.7400 C   0  0  0  0  0  0  0  0  0  0  0  0
   27.3800   27.2800   35.9400 N   0  0  0  0  0  0  0  0  0  0  0  0
   28.6200   27.7400   36.0300 N   0  0  0  0  0  0  0  0  0  0  0  0
   29.3800   28.0000   34.9600 C   0  0  0  0  0  0  0  0  0  0  0  0
   30.6700   28.5000   35.1300 C   0  0  0  0  0  0  0  0  0  0  0  0
   31.5400   28.6100   34.0300 C   0  0  0  0  0  0  0  0  0  0  0  0
   31.0900   28.2200   32.7700 C   0  0  0  0  0  0  0  0  0  0  0  0
   29.8000   27.7000   32.6000 C   0  0  0  0  0  0  0  0  0  0  0  0
   28.9600   27.5500   33.7100 C   0  0  0  0  0  0  0  0  0  0  0  0
   27.6600   27.0300   33.5900 C   0  0  0  0  0  0  0  0  0  0  0  0
   27.1600   26.7400   32.3400 N   0  0  0  0  0  0  0  0  0  0  0  0
   23.3450   26.1953   35.9248 C   0  0  0  0  0  0  0  0  0  0  0  0
   23.2348   24.8589   35.6928 N   0  0  0  0  0  0  0  0  0  0  0  0
   22.1180   24.1550   35.9993 C   0  0  0  0  0  0  0  0  0  0  0  0
   21.0272   24.7891   36.6013 C   0  0  0  0  0  0  0  0  0  0  0  0
   19.7669   24.0089   36.8652 C   0  0  0  0  0  0  0  0  0  0  0  0
   19.0193   24.5754   38.0314 C   0  0  0  0  0  0  0  0  0  0  0  0
   18.2766   23.8201   38.7158 O   0  0  0  0  0  0  0  0  0  0  0  0
   19.1176   25.9764   38.3411 N   0  0  0  0  0  0  0  0  0  0  0  0
   18.3331   26.5296   39.4480 C   0  0  0  0  0  0  0  0  0  0  0  0
   19.8953   26.8712   37.4725 C   0  0  0  0  0  0  0  0  0  0  0  0
   21.0997   26.1700   36.8756 C   0  0  0  0  0  0  0  0  0  0  0  0
   22.2643   26.8864   36.5139 C   0  0  0  0  0  0  0  0  0  0  0  0
   22.3507   28.6385   36.7353 Cl  0  0  0  0  0  0  0  0  0  0  0  0
   24.7766   27.7860   36.0678 H   0  0  0  0  0  0  0  0  0  0  0  0
   31.0179   28.7883   36.1144 H   0  0  0  0  0  0  0  0  0  0  0  0
   32.5424   28.9969   34.1597 H   0  0  0  0  0  0  0  0  0  0  0  0
   31.7487   28.3095   31.9157 H   0  0  0  0  0  0  0  0  0  0  0  0
   29.5077   27.3813   31.6086 H   0  0  0  0  0  0  0  0  0  0  0  0
   26.7451   25.8074   32.1267 H   0  0  0  0  0  0  0  0  0  0  0  0
   27.2453   27.4248   31.5561 H   0  0  0  0  0  0  0  0  0  0  0  0
   22.0812   23.0979   35.7691 H   0  0  0  0  0  0  0  0  0  0  0  0
   19.1183   24.0529   35.9650 H   0  0  0  0  0  0  0  0  0  0  0  0
   20.0118   22.9440   37.0729 H   0  0  0  0  0  0  0  0  0  0  0  0
   17.2564   26.3033   39.2963 H   0  0  0  0  0  0  0  0  0  0  0  0
   18.6710   26.0806   40.4056 H   0  0  0  0  0  0  0  0  0  0  0  0
   18.4475   27.6323   39.5155 H   0  0  0  0  0  0  0  0  0  0  0  0
   19.2452   27.2291   36.6462 H   0  0  0  0  0  0  0  0  0  0  0  0
   20.2226   27.7517   38.0635 H   0  0  0  0  0  0  0  0  0  0  0  0
  1  2  1  0
  2  3  2  0
  2  4  1  0
  4  5  2  0
  5  6  1  0
  6  7  2  0
  7  8  1  0
  8  9  2  0
  9 10  1  0
 10 11  2  0
 11 12  1  0
 12 13  2  0
 13 14  1  0
  1 15  1  0
 15 16  2  0
 16 17  1  0
 17 18  2  0
 18 19  1  0
 19 20  1  0
 20 21  2  0
 20 22  1  0
 22 23  1  0
 22 24  1  0
 24 25  1  0
 25 26  2  0
 26 27  1  0
 13  4  1  0
 26 15  1  0
 12  7  1  0
 25 18  1  0
  1 28  1  0
  8 29  1  0
  9 30  1  0
 10 31  1  0
 11 32  1  0
 14 33  1  0
 14 34  1  0
 17 35  1  0
 19 36  1  0
 19 37  1  0
 23 38  1  0
 23 39  1  0
 23 40  1  0
 24 41  1  0
 24 42  1  0
M  END
$$$$
confid_2
     RDKit          3D

 42 45  0  0  0  0  0  0  0  0999 V2000
   24.5700   26.8800   35.5900 N   0  0  0  0  0  0  0  0  0  0  0  0
   25.5000   26.4000   34.6900 C   0  0  0  0  0  0  0  0  0  0  0  0
   25.1700   25.5200   33.9100 O   0  0  0  0  0  0  0  0  0  0  0  0
   26.8400   27.0200   34.7400 C   0  0  0  0  0  0  0  0  0  0  0  0
   27.3800   27.2800   35.9400 N   0  0  0  0  0  0  0  0  0  0  0  0
   28.6200   27.7400   36.0300 N   0  0  0  0  0  0  0  0  0  0  0  0
   29.3800   28.0000   34.9600 C   0  0  0  0  0  0  0  0  0  0  0  0
   30.6700   28.5000   35.1300 C   0  0  0  0  0  0  0  0  0  0  0  0
   31.5400   28.6100   34.0300 C   0  0  0  0  0  0  0  0  0  0  0  0
   31.0900   28.2200   32.7700 C   0  0  0  0  0  0  0  0  0  0  0  0
   29.8000   27.7000   32.6000 C   0  0  0  0  0  0  0  0  0  0  0  0
   28.9600   27.5500   33.7100 C   0  0  0  0  0  0  0  0  0  0  0  0
   27.6600   27.0300   33.5900 C   0  0  0  0  0  0  0  0  0  0  0  0
   27.1600   26.7400   32.3400 N   0  0  0  0  0  0  0  0  0  0  0  0
   23.3456   26.1936   35.9254 C   0  0  0  0  0  0  0  0  0  0  0  0
   23.2405   24.8562   35.6967 N   0  0  0  0  0  0  0  0  0  0  0  0
   22.1333   24.1450   36.0202 C   0  0  0  0  0  0  0  0  0  0  0  0
   21.0319   24.7796   36.6014 C   0  0  0  0  0  0  0  0  0  0  0  0
   19.8422   23.9611   37.0273 C   0  0  0  0  0  0  0  0  0  0  0  0
   18.5876   24.7756   36.9838 C   0  0  0  0  0  0  0  0  0  0  0  0
   17.4823   24.1992   36.7923 O   0  0  0  0  0  0  0  0  0  0  0  0
   18.6411   26.1965   37.1989 N   0  0  0  0  0  0  0  0  0  0  0  0
   17.3991   26.9736   37.2122 C   0  0  0  0  0  0  0  0  0  0  0  0
   19.9172   26.8440   37.5341 C   0  0  0  0  0  0  0  0  0  0  0  0
   21.0894   26.1658   36.8514 C   0  0  0  0  0  0  0  0  0  0  0  0
   22.2694   26.8779   36.5319 C   0  0  0  0  0  0  0  0  0  0  0  0
   22.4010   28.6066   36.8797 Cl  0  0  0  0  0  0  0  0  0  0  0  0
   24.7758   27.7888   36.0622 H   0  0  0  0  0  0  0  0  0  0  0  0
   31.0179   28.7883   36.1144 H   0  0  0  0  0  0  0  0  0  0  0  0
   32.5424   28.9969   34.1597 H   0  0  0  0  0  0  0  0  0  0  0  0
   31.7487   28.3095   31.9157 H   0  0  0  0  0  0  0  0  0  0  0  0
   29.5077   27.3813   31.6086 H   0  0  0  0  0  0  0  0  0  0  0  0
   26.7451   25.8074   32.1267 H   0  0  0  0  0  0  0  0  0  0  0  0
   27.2453   27.4248   31.5561 H   0  0  0  0  0  0  0  0  0  0  0  0
   22.1172   23.0793   35.8309 H   0  0  0  0  0  0  0  0  0  0  0  0
   19.7258   23.0782   36.3609 H   0  0  0  0  0  0  0  0  0  0  0  0
   20.0029   23.6010   38.0653 H   0  0  0  0  0  0  0  0  0  0  0  0
   17.5884   28.0374   37.4696 H   0  0  0  0  0  0  0  0  0  0  0  0
   16.7011   26.5550   37.9679 H   0  0  0  0  0  0  0  0  0  0  0  0
   16.9227   26.9326   36.2102 H   0  0  0  0  0  0  0  0  0  0  0  0
   20.0693   26.7969   38.6332 H   0  0  0  0  0  0  0  0  0  0  0  0
   19.8676   27.9118   37.2364 H   0  0  0  0  0  0  0  0  0  0  0  0
  1  2  1  0
  2  3  2  0
  2  4  1  0
  4  5  2  0
  5  6  1  0
  6  7  2  0
  7  8  1  0
  8  9  2  0
  9 10  1  0
 10 11  2  0
 11 12  1  0
 12 13  2  0
 13 14  1  0
  1 15  1  0
 15 16  2  0
 16 17  1  0
 17 18  2  0
 18 19  1  0
 19 20  1  0
 20 21  2  0
 20 22  1  0
 22 23  1  0
 22 24  1  0
 24 25  1  0
 25 26  2  0
 26 27  1  0
 13  4  1  0
 26 15  1  0
 12  7  1  0
 25 18  1  0
  1 28  1  0
  8 29  1  0
  9 30  1  0
 10 31  1  0
 11 32  1  0
 14 33  1  0
 14 34  1  0
 17 35  1  0
 19 36  1  0
 19 37  1  0
 23 38  1  0
 23 39  1  0
 23 40  1  0
 24 41  1  0
 24 42  1  0
M  END
$$$$
confid_3
     RDKit          3D

 42 45  0  0  0  0  0  0  0  0999 V2000
   24.5700   26.8800   35.5900 N   0  0  0  0  0  0  0  0  0  0  0  0
   25.5000   26.4000   34.6900 C   0  0  0  0  0  0  0  0  0  0  0  0
   25.1700   25.5200   33.9100 O   0  0  0  0  0  0  0  0  0  0  0  0
   26.8400   27.0200   34.7400 C   0  0  0  0  0  0  0  0  0  0  0  0
   27.3800   27.2800   35.9400 N   0  0  0  0  0  0  0  0  0  0  0  0
   28.6200   27.7400   36.0300 N   0  0  0  0  0  0  0  0  0  0  0  0
   29.3800   28.0000   34.9600 C   0  0  0  0  0  0  0  0  0  0  0  0
   30.6700   28.5000   35.1300 C   0  0  0  0  0  0  0  0  0  0  0  0
   31.5400   28.6100   34.0300 C   0  0  0  0  0  0  0  0  0  0  0  0
   31.0900   28.2200   32.7700 C   0  0  0  0  0  0  0  0  0  0  0  0
   29.8000   27.7000   32.6000 C   0  0  0  0  0  0  0  0  0  0  0  0
   28.9600   27.5500   33.7100 C   0  0  0  0  0  0  0  0  0  0  0  0
   27.6600   27.0300   33.5900 C   0  0  0  0  0  0  0  0  0  0  0  0
   27.1600   26.7400   32.3400 N   0  0  0  0  0  0  0  0  0  0  0  0
   23.1722   26.5204   35.5829 C   0  0  0  0  0  0  0  0  0  0  0  0
   22.5976   26.0602   34.4383 N   0  0  0  0  0  0  0  0  0  0  0  0
   21.2869   25.7238   34.3640 C   0  0  0  0  0  0  0  0  0  0  0  0
   20.4573   25.8665   35.4801 C   0  0  0  0  0  0  0  0  0  0  0  0
   19.0225   25.4172   35.4022 C   0  0  0  0  0  0  0  0  0  0  0  0
   18.1631   26.1994   36.3452 C   0  0  0  0  0  0  0  0  0  0  0  0
   16.9395   26.3552   36.0822 O   0  0  0  0  0  0  0  0  0  0  0  0
   18.7214   26.7325   37.5587 N   0  0  0  0  0  0  0  0  0  0  0  0
   17.8553   27.4438   38.5023 C   0  0  0  0  0  0  0  0  0  0  0  0
   20.1197   26.4514   37.9132 C   0  0  0  0  0  0  0  0  0  0  0  0
   21.0033   26.3539   36.6850 C   0  0  0  0  0  0  0  0  0  0  0  0
   22.3817   26.6648   36.7433 C   0  0  0  0  0  0  0  0  0  0  0  0
   23.1306   27.1658   38.2647 Cl  0  0  0  0  0  0  0  0  0  0  0  0
   24.8833   27.5771   36.3021 H   0  0  0  0  0  0  0  0  0  0  0  0
   31.0178   28.7888   36.1143 H   0  0  0  0  0  0  0  0  0  0  0  0
   32.5416   28.9991   34.1593 H   0  0  0  0  0  0  0  0  0  0  0  0
   31.7454   28.3188   31.9142 H   0  0  0  0  0  0  0  0  0  0  0  0
   29.5013   27.4243   31.5992 H   0  0  0  0  0  0  0  0  0  0  0  0
   27.7097   26.1833   31.6492 H   0  0  0  0  0  0  0  0  0  0  0  0
   26.1710   26.9652   32.0921 H   0  0  0  0  0  0  0  0  0  0  0  0
   20.8927   25.3411   33.4313 H   0  0  0  0  0  0  0  0  0  0  0  0
   18.6365   25.5454   34.3670 H   0  0  0  0  0  0  0  0  0  0  0  0
   18.9649   24.3410   35.6697 H   0  0  0  0  0  0  0  0  0  0  0  0
   18.4050   27.7244   39.4258 H   0  0  0  0  0  0  0  0  0  0  0  0
   17.0020   26.7950   38.7927 H   0  0  0  0  0  0  0  0  0  0  0  0
   17.4674   28.3695   38.0276 H   0  0  0  0  0  0  0  0  0  0  0  0
   20.4895   27.2545   38.5841 H   0  0  0  0  0  0  0  0  0  0  0  0
   20.1673   25.4883   38.4642 H   0  0  0  0  0  0  0  0  0  0  0  0
  1  2  1  0
  2  3  2  0
  2  4  1  0
  4  5  2  0
  5  6  1  0
  6  7  2  0
  7  8  1  0
  8  9  2  0
  9 10  1  0
 10 11  2  0
 11 12  1  0
 12 13  2  0
 13 14  1  0
  1 15  1  0
 15 16  2  0
 16 17  1  0
 17 18  2  0
 18 19  1  0
 19 20  1  0
 20 21  2  0
 20 22  1  0
 22 23  1  0
 22 24  1  0
 24 25  1  0
 25 26  2  0
 26 27  1  0
 13  4  1  0
 26 15  1  0
 12  7  1  0
 25 18  1  0
  1 28  1  0
  8 29  1  0
  9 30  1  0
 10 31  1  0
 11 32  1  0
 14 33  1  0
 14 34  1  0
 17 35  1  0
 19 36  1  0
 19 37  1  0
 23 38  1  0
 23 39  1  0
 23 40  1  0
 24 41  1  0
 24 42  1  0
M  END
$$$$
