confid_0
     RDKit          3D

 42 45  0  0  0  0  0  0  0  0999 V2000
   25.3300   26.2600   34.7600 N   0  0  0  0  0  0  0  0  0  0  0  0
   26.1200   25.9200   33.6900 C   0  0  0  0  0  0  0  0  0  0  0  0
   25.6300   25.1100   32.9400 O   0  0  0  0  0  0  0  0  0  0  0  0
   27.5200   26.3800   33.4600 C   0  0  0  0  0  0  0  0  0  0  0  0
   28.1600   26.6300   34.6100 N   0  0  0  0  0  0  0  0  0  0  0  0
   29.4800   26.8500   34.5700 N   0  0  0  0  0  0  0  0  0  0  0  0
   30.1900   26.7800   33.4400 C   0  0  0  0  0  0  0  0  0  0  0  0
   31.5600   27.0500   33.5000 C   0  0  0  0  0  0  0  0  0  0  0  0
   32.2700   27.2400   32.3100 C   0  0  0  0  0  0  0  0  0  0  0  0
   31.6100   27.2500   31.0800 C   0  0  0  0  0  0  0  0  0  0  0  0
   30.2700   26.8700   31.0600 C   0  0  0  0  0  0  0  0  0  0  0  0
   29.5100   26.6900   32.2300 C   0  0  0  0  0  0  0  0  0  0  0  0
   28.1400   26.4100   32.2000 C   0  0  0  0  0  0  0  0  0  0  0  0
   27.4300   26.1300   31.0500 N   0  0  0  0  0  0  0  0  0  0  0  0
   23.8975   26.0953   34.8270 C   0  0  0  0  0  0  0  0  0  0  0  0
   23.1780   25.8280   33.7017 N   0  0  0  0  0  0  0  0  0  0  0  0
   21.8284   25.6849   33.7200 C   0  0  0  0  0  0  0  0  0  0  0  0
   21.1234   25.8068   34.9224 C   0  0  0  0  0  0  0  0  0  0  0  0
   19.6153   25.6953   34.9342 C   0  0  0  0  0  0  0  0  0  0  0  0
   19.0896   25.2579   36.2451 N   0  0  0  0  0  0  0  0  0  0  0  0
   19.3708   23.8346   36.5042 C   0  0  0  0  0  0  0  0  0  0  0  0
   19.5649   26.1248   37.3436 C   0  0  0  0  0  0  0  0  0  0  0  0
   21.0648   26.2493   37.3620 C   0  0  0  0  0  0  0  0  0  0  0  0
   21.6468   26.5156   38.4477 O   0  0  0  0  0  0  0  0  0  0  0  0
   21.8264   26.1107   36.1007 C   0  0  0  0  0  0  0  0  0  0  0  0
   23.2267   26.2507   36.0518 C   0  0  0  0  0  0  0  0  0  0  0  0
   23.9356   26.5267   37.1769 F   0  0  0  0  0  0  0  0  0  0  0  0
   25.7975   26.7253   35.5700 H   0  0  0  0  0  0  0  0  0  0  0  0
   32.0668   27.1429   34.4530 H   0  0  0  0  0  0  0  0  0  0  0  0
   33.3284   27.4627   32.3495 H   0  0  0  0  0  0  0  0  0  0  0  0
   32.1496   27.4414   30.1613 H   0  0  0  0  0  0  0  0  0  0  0  0
   29.7983   26.8254   30.0886 H   0  0  0  0  0  0  0  0  0  0  0  0
   26.4123   26.3491   30.9739 H   0  0  0  0  0  0  0  0  0  0  0  0
   27.8914   25.7241   30.2071 H   0  0  0  0  0  0  0  0  0  0  0  0
   21.3052   25.4781   32.7953 H   0  0  0  0  0  0  0  0  0  0  0  0
   19.1880   26.6909   34.6863 H   0  0  0  0  0  0  0  0  0  0  0  0
   19.2737   24.9960   34.1388 H   0  0  0  0  0  0  0  0  0  0  0  0
   20.4628   23.6360   36.5631 H   0  0  0  0  0  0  0  0  0  0  0  0
   18.9346   23.2069   35.6981 H   0  0  0  0  0  0  0  0  0  0  0  0
   18.8964   23.5199   37.4582 H   0  0  0  0  0  0  0  0  0  0  0  0
   19.1290   27.1395   37.2205 H   0  0  0  0  0  0  0  0  0  0  0  0
   19.2048   25.7365   38.3219 H   0  0  0  0  0  0  0  0  0  0  0  0
  1  2  1  0
  2  3  2  0
  2  4  1  0
  4  5  2  0
  5  6  1  0
  6  7  2  0
  7  8  1  0
  8  9  2  0
  9 10  1  0
 10 11  2  0
 11 12  1  0
 12 13  2  0
 13 14  1  0
  1 15  1  0
 15 16  2  0
 16 17  1  0
 17 18  2  0
 18 19  1  0
 19 20  1  0
 20 21  1  0
 20 22  1  0
 22 23  1  0
 23 24  2  0
 23 25  1  0
 25 26  2  0
 26 27  1  0
 13  4  1  0
 26 15  1  0
 12  7  1  0
 25 18  1  0
  1 28  1  0
  8 29  1  0
  9 30  1  0
 10 31  1  0
 11 32  1  0
 14 33  1  0
 14 34  1  0
 17 35  1  0
 19 36  1  0
 19 37  1  0
 21 38  1  0
 21 39  1  0
 21 40  1  0
 22 41  1  0
 22 42  1  0
M  END
$$$$
confid_1
     RDKit          3D

 42 45  0  0  0  0  0  0  0  0999 V2000
   25.3300   26.2600   34.7600 N   0  0  0  0  0  0  0  0  0  0  0  0
   26.1200   25.9200   33.6900 C   0  0  0  0  0  0  0  0  0  0  0  0
   25.6300   25.1100   32.9400 O   0  0  0  0  0  0  0  0  0  0  0  0
   27.5200   26.3800   33.4600 C   0  0  0  0  0  0  0  0  0  0  0  0
   28.1600   26.6300   34.6100 N   0  0  0  0  0  0  0  0  0  0  0  0
   29.4800   26.8500   34.5700 N   0  0  0  0  0  0  0  0  0  0  0  0
   30.1900   26.7800   33.4400 C   0  0  0  0  0  0  0  0  0  0  0  0
   31.5600   27.0500   33.5000 C   0  0  0  0  0  0  0  0  0  0  0  0
   32.2700   27.2400   32.3100 C   0  0  0  0  0  0  0  0  0  0  0  0
   31.6100   27.2500   31.0800 C   0  0  0  0  0  0  0  0  0  0  0  0
   30.2700   26.8700   31.0600 C   0  0  0  0  0  0  0  0  0  0  0  0
   29.5100   26.6900   32.2300 C   0  0  0  0  0  0  0  0  0  0  0  0
   28.1400   26.4100   32.2000 C   0  0  0  0  0  0  0  0  0  0  0  0
   27.4300   26.1300   31.0500 N   0  0  0  0  0  0  0  0  0  0  0  0
   24.1709   25.5342   35.2231 C   0  0  0  0  0  0  0  0  0  0  0  0
   23.9249   24.2679   34.7857 N   0  0  0  0  0  0  0  0  0  0  0  0
   22.8600   23.5449   35.2165 C   0  0  0  0  0  0  0  0  0  0  0  0
   21.9748   24.0858   36.1553 C   0  0  0  0  0  0  0  0  0  0  0  0
   20.7621   23.2985   36.5987 C   0  0  0  0  0  0  0  0  0  0  0  0
   20.2932   23.6904   37.9450 N   0  0  0  0  0  0  0  0  0  0  0  0
   21.2029   23.2184   39.0041 C   0  0  0  0  0  0  0  0  0  0  0  0
   20.0435   25.1440   38.0373 C   0  0  0  0  0  0  0  0  0  0  0  0
   21.2372   25.9547   37.6090 C   0  0  0  0  0  0  0  0  0  0  0  0
   21.3851   27.1203   38.0652 O   0  0  0  0  0  0  0  0  0  0  0  0
   22.1870   25.3941   36.6222 C   0  0  0  0  0  0  0  0  0  0  0  0
   23.3021   26.1191   36.1599 C   0  0  0  0  0  0  0  0  0  0  0  0
   23.5405   27.3808   36.6025 F   0  0  0  0  0  0  0  0  0  0  0  0
   25.6123   27.1139   35.2921 H   0  0  0  0  0  0  0  0  0  0  0  0
   32.0668   27.1429   34.4530 H   0  0  0  0  0  0  0  0  0  0  0  0
   33.3284   27.4627   32.3495 H   0  0  0  0  0  0  0  0  0  0  0  0
   32.1496   27.4414   30.1613 H   0  0  0  0  0  0  0  0  0  0  0  0
   29.7983   26.8254   30.0886 H   0  0  0  0  0  0  0  0  0  0  0  0
   26.4124   26.3493   30.9737 H   0  0  0  0  0  0  0  0  0  0  0  0
   27.8914   25.7239   30.2072 H   0  0  0  0  0  0  0  0  0  0  0  0
   22.7054   22.5469   34.8272 H   0  0  0  0  0  0  0  0  0  0  0  0
   19.9447   23.4713   35.8658 H   0  0  0  0  0  0  0  0  0  0  0  0
   20.9813   22.2077   36.5787 H   0  0  0  0  0  0  0  0  0  0  0  0
   20.7828   23.4609   40.0035 H   0  0  0  0  0  0  0  0  0  0  0  0
   21.3083   22.1137   38.9518 H   0  0  0  0  0  0  0  0  0  0  0  0
   22.2101   23.6799   38.9159 H   0  0  0  0  0  0  0  0  0  0  0  0
   19.7519   25.4181   39.0753 H   0  0  0  0  0  0  0  0  0  0  0  0
   19.1856   25.4079   37.3823 H   0  0  0  0  0  0  0  0  0  0  0  0
  1  2  1  0
  2  3  2  0
  2  4  1  0
  4  5  2  0
  5  6  1  0
  6  7  2  0
  7  8  1  0
  8  9  2  0
  9 10  1  0
 10 11  2  0
 11 12  1  0
 12 13  2  0
 13 14  1  0
  1 15  1  0
 15 16  2  0
 16 17  1  0
 17 18  2  0
 18 19  1  0
 19 20  1  0
 20 21  1  0
 20 22  1  0
 22 23  1  0
 23 24  2  0
 23 25  1  0
 25 26  2  0
 26 27  1  0
 13  4  1  0
 26 15  1  0
 12  7  1  0
 25 18  1  0
  1 28  1  0
  8 29  1  0
  9 30  1  0
 10 31  1  0
 11 32  1  0
 14 33  1  0
 14 34  1  0
 17 35  1  0
 19 36  1  0
 19 37  1  0
 21 38  1  0
 21 39  1  0
 21 40  1  0
 22 41  1  0
 22 42  1  0
M  END
$$$$
confid_2
     RDKit          3D

 42 45  0  0  0  0  0  0  0  0999 V2000
   25.3300   26.2600   34.7600 N   0  0  0  0  0  0  0  0  0  0  0  0
   26.1200   25.9200   33.6900 C   0  0  0  0  0  0  0  0  0  0  0  0
   25.6300   25.1100   32.9400 O   0  0  0  0  0  0  0  0  0  0  0  0
   27.5200   26.3800   33.4600 C   0  0  0  0  0  0  0  0  0  0  0  0
   28.1600   26.6300   34.6100 N   0  0  0  0  0  0  0  0  0  0  0  0
   29.4800   26.8500   34.5700 N   0  0  0  0  0  0  0  0  0  0  0  0
   30.1900   26.7800   33.4400 C   0  0  0  0  0  0  0  0  0  0  0  0
   31.5600   27.0500   33.5000 C   0  0  0  0  0  0  0  0  0  0  0  0
   32.2700   27.2400   32.3100 C   0  0  0  0  0  0  0  0  0  0  0  0
   31.6100   27.2500   31.0800 C   0  0  0  0  0  0  0  0  0  0  0  0
   30.2700   26.8700   31.0600 C   0  0  0  0  0  0  0  0  0  0  0  0
   29.5100   26.6900   32.2300 C   0  0  0  0  0  0  0  0  0  0  0  0
   28.1400   26.4100   32.2000 C   0  0  0  0  0  0  0  0  0  0  0  0
   27.4300   26.1300   31.0500 N   0  0  0  0  0  0  0  0  0  0  0  0
   24.1708   25.5340   35.2225 C   0  0  0  0  0  0  0  0  0  0  0  0
   23.9292   24.2652   34.7900 N   0  0  0  0  0  0  0  0  0  0  0  0
   22.8613   23.5439   35.2162 C   0  0  0  0  0  0  0  0  0  0  0  0
   21.9569   24.0969   36.1293 C   0  0  0  0  0  0  0  0  0  0  0  0
   20.7947   23.2754   36.6406 C   0  0  0  0  0  0  0  0  0  0  0  0
   19.6595   24.1133   37.0826 N   0  0  0  0  0  0  0  0  0  0  0  0
   18.9514   24.7262   35.9447 C   0  0  0  0  0  0  0  0  0  0  0  0
   20.0767   25.1194   38.0815 C   0  0  0  0  0  0  0  0  0  0  0  0
   21.2287   25.9584   37.5973 C   0  0  0  0  0  0  0  0  0  0  0  0
   21.3853   27.1178   38.0661 O   0  0  0  0  0  0  0  0  0  0  0  0
   22.1872   25.3927   36.6219 C   0  0  0  0  0  0  0  0  0  0  0  0
   23.3018   26.1184   36.1594 C   0  0  0  0  0  0  0  0  0  0  0  0
   23.5411   27.3792   36.6043 F   0  0  0  0  0  0  0  0  0  0  0  0
   25.6117   27.1143   35.2918 H   0  0  0  0  0  0  0  0  0  0  0  0
   32.0668   27.1425   34.4530 H   0  0  0  0  0  0  0  0  0  0  0  0
   33.3288   27.4608   32.3494 H   0  0  0  0  0  0  0  0  0  0  0  0
   32.1515   27.4335   30.1608 H   0  0  0  0  0  0  0  0  0  0  0  0
   29.8039   26.7906   30.0880 H   0  0  0  0  0  0  0  0  0  0  0  0
   26.8612   25.2624   30.9527 H   0  0  0  0  0  0  0  0  0  0  0  0
   27.5768   26.6942   30.1848 H   0  0  0  0  0  0  0  0  0  0  0  0
   22.7196   22.5375   34.8440 H   0  0  0  0  0  0  0  0  0  0  0  0
   21.1484   22.6629   37.4979 H   0  0  0  0  0  0  0  0  0  0  0  0
   20.4536   22.5607   35.8589 H   0  0  0  0  0  0  0  0  0  0  0  0
   18.0607   25.2835   36.3055 H   0  0  0  0  0  0  0  0  0  0  0  0
   18.5866   23.9371   35.2530 H   0  0  0  0  0  0  0  0  0  0  0  0
   19.6075   25.4234   35.3802 H   0  0  0  0  0  0  0  0  0  0  0  0
   19.2175   25.7736   38.3490 H   0  0  0  0  0  0  0  0  0  0  0  0
   20.3871   24.5997   39.0133 H   0  0  0  0  0  0  0  0  0  0  0  0
  1  2  1  0
  2  3  2  0
  2  4  1  0
  4  5  2  0
  5  6  1  0
  6  7  2  0
  7  8  1  0
  8  9  2  0
  9 10  1  0
 10 11  2  0
 11 12  1  0
 12 13  2  0
 13 14  1  0
  1 15  1  0
 15 16  2  0
 16 17  1  0
 17 18  2  0
 18 19  1  0
 19 20  1  0
 20 21  1  0
 20 22  1  0
 22 23  1  0
 23 24  2  0
 23 25  1  0
 25 26  2  0
 26 27  1  0
 13  4  1  0
 26 15  1  0
 12  7  1  0
 25 18  1  0
  1 28  1  0
  8 29  1  0
  9 30  1  0
 10 31  1  0
 11 32  1  0
 14 33  1  0
 14 34  1  0
 17 35  1  0
 19 36  1  0
 19 37  1  0
 21 38  1  0
 21 39  1  0
 21 40  1  0
 22 41  1  0
 22 42  1  0
M  END
$$$$
confid_3
     RDKit          3D

 42 45  0  0  0  0  0  0  0  0999 V2000
   25.3300   26.2600   34.7600 N   0  0  0  0  0  0  0  0  0  0  0  0
   26.1200   25.9200   33.6900 C   0  0  0  0  0  0  0  0  0  0  0  0
   25.6300   25.1100   32.9400 O   0  0  0  0  0  0  0  0  0  0  0  0
   27.5200   26.3800   33.4600 C   0  0  0  0  0  0  0  0  0  0  0  0
   28.1600   26.6300   34.6100 N   0  0  0  0  0  0  0  0  0  0  0  0
   29.4800   26.8500   34.5700 N   0  0  0  0  0  0  0  0  0  0  0  0
   30.1900   26.7800   33.4400 C   0  0  0  0  0  0  0  0  0  0  0  0
   31.5600   27.0500   33.5000 C   0  0  0  0  0  0  0  0  0  0  0  0
   32.2700   27.2400   32.3100 C   0  0  0  0  0  0  0  0  0  0  0  0
   31.6100   27.2500   31.0800 C   0  0  0  0  0  0  0  0  0  0  0  0
   30.2700   26.8700   31.0600 C   0  0  0  0  0  0  0  0  0  0  0  0
   29.5100   26.6900   32.2300 C   0  0  0  0  0  0  0  0  0  0  0  0
   28.1400   26.4100   32.2000 C   0  0  0  0  0  0  0  0  0  0  0  0
   27.4300   26.1300   31.0500 N   0  0  0  0  0  0  0  0  0  0  0  0
   23.8980   26.0913   34.8299 C   0  0  0  0  0  0  0  0  0  0  0  0
   23.1777   25.8134   33.7074 N   0  0  0  0  0  0  0  0  0  0  0  0
   21.8278   25.6711   33.7274 C   0  0  0  0  0  0  0  0  0  0  0  0
   21.1214   25.8265   34.9252 C   0  0  0  0  0  0  0  0  0  0  0  0
   19.6263   25.6246   34.9632 C   0  0  0  0  0  0  0  0  0  0  0  0
   19.0211   26.4216   36.0502 N   0  0  0  0  0  0  0  0  0  0  0  0
   17.5615   26.2398   36.0543 C   0  0  0  0  0  0  0  0  0  0  0  0
   19.5810   26.0295   37.3588 C   0  0  0  0  0  0  0  0  0  0  0  0
   21.0685   26.2352   37.3711 C   0  0  0  0  0  0  0  0  0  0  0  0
   21.6522   26.4716   38.4630 O   0  0  0  0  0  0  0  0  0  0  0  0
   21.8302   26.0993   36.1084 C   0  0  0  0  0  0  0  0  0  0  0  0
   23.2296   26.2445   36.0564 C   0  0  0  0  0  0  0  0  0  0  0  0
   23.9401   26.5186   37.1810 F   0  0  0  0  0  0  0  0  0  0  0  0
   25.7971   26.7286   35.5684 H   0  0  0  0  0  0  0  0  0  0  0  0
   32.0668   27.1425   34.4530 H   0  0  0  0  0  0  0  0  0  0  0  0
   33.3288   27.4608   32.3494 H   0  0  0  0  0  0  0  0  0  0  0  0
   32.1515   27.4335   30.1608 H   0  0  0  0  0  0  0  0  0  0  0  0
   29.8039   26.7906   30.0880 H   0  0  0  0  0  0  0  0  0  0  0  0
   26.8605   25.2629   30.9528 H   0  0  0  0  0  0  0  0  0  0  0  0
   27.5769   26.6941   30.1847 H   0  0  0  0  0  0  0  0  0  0  0  0
   21.3061   25.4389   32.8079 H   0  0  0  0  0  0  0  0  0  0  0  0
   19.1937   25.9430   33.9884 H   0  0  0  0  0  0  0  0  0  0  0  0
   19.4140   24.5401   35.1011 H   0  0  0  0  0  0  0  0  0  0  0  0
   17.1321   26.5719   35.0846 H   0  0  0  0  0  0  0  0  0  0  0  0
   17.1004   26.8658   36.8484 H   0  0  0  0  0  0  0  0  0  0  0  0
   17.2868   25.1750   36.2268 H   0  0  0  0  0  0  0  0  0  0  0  0
   19.3639   24.9601   37.5806 H   0  0  0  0  0  0  0  0  0  0  0  0
   19.1298   26.6544   38.1612 H   0  0  0  0  0  0  0  0  0  0  0  0
  1  2  1  0
  2  3  2  0
  2  4  1  0
  4  5  2  0
  5  6  1  0
  6  7  2  0
  7  8  1  0
  8  9  2  0
  9 10  1  0
 10 11  2  0
 11 12  1  0
 12 13  2  0
 13 14  1  0
  1 15  1  0
 15 16  2  0
 16 17  1  0
 17 18  2  0
 18 19  1  0
 19 20  1  0
 20 21  1  0
 20 22  1  0
 22 23  1  0
 23 24  2  0
 23 25  1  0
 25 26  2  0
 26 27  1  0
 13  4  1  0
 26 15  1  0
 12  7  1  0
 25 18  1  0
  1 28  1  0
  8 29  1  0
  9 30  1  0
 10 31  1  0
 11 32  1  0
 14 33  1  0
 14 34  1  0
 17 35  1  0
 19 36  1  0
 19 37  1  0
 21 38  1  0
 21 39  1  0
 21 40  1  0
 22 41  1  0
 22 42  1  0
M  END
$$$$
confid_4
     RDKit          3D

 42 45  0  0  0  0  0  0  0  0999 V2000
   25.3300   26.2600   34.7600 N   0  0  0  0  0  0  0  0  0  0  0  0
   26.1200   25.9200   33.6900 C   0  0  0  0  0  0  0  0  0  0  0  0
   25.6300   25.1100   32.9400 O   0  0  0  0  0  0  0  0  0  0  0  0
   27.5200   26.3800   33.4600 C   0  0  0  0  0  0  0  0  0  0  0  0
   28.1600   26.6300   34.6100 N   0  0  0  0  0  0  0  0  0  0  0  0
   29.4800   26.8500   34.5700 N   0  0  0  0  0  0  0  0  0  0  0  0
   30.1900   26.7800   33.4400 C   0  0  0  0  0  0  0  0  0  0  0  0
   31.5600   27.0500   33.5000 C   0  0  0  0  0  0  0  0  0  0  0  0
   32.2700   27.2400   32.3100 C   0  0  0  0  0  0  0  0  0  0  0  0
   31.6100   27.2500   31.0800 C   0  0  0  0  0  0  0  0  0  0  0  0
   30.2700   26.8700   31.0600 C   0  0  0  0  0  0  0  0  0  0  0  0
   29.5100   26.6900   32.2300 C   0  0  0  0  0  0  0  0  0  0  0  0
   28.1400   26.4100   32.2000 C   0  0  0  0  0  0  0  0  0  0  0  0
   27.4300   26.1300   31.0500 N   0  0  0  0  0  0  0  0  0  0  0  0
   24.1704   25.5347   35.2228 C   0  0  0  0  0  0  0  0  0  0  0  0
   23.9236   24.2687   34.7845 N   0  0  0  0  0  0  0  0  0  0  0  0
   22.8581   23.5458   35.2146 C   0  0  0  0  0  0  0  0  0  0  0  0
   21.9737   24.0867   36.1543 C   0  0  0  0  0  0  0  0  0  0  0  0
   20.7622   23.3064   36.6024 C   0  0  0  0  0  0  0  0  0  0  0  0
   20.3616   23.7058   37.9673 N   0  0  0  0  0  0  0  0  0  0  0  0
   19.2003   22.9148   38.4023 C   0  0  0  0  0  0  0  0  0  0  0  0
   20.0369   25.1453   38.0156 C   0  0  0  0  0  0  0  0  0  0  0  0
   21.2257   25.9613   37.5960 C   0  0  0  0  0  0  0  0  0  0  0  0
   21.3616   27.1324   38.0419 O   0  0  0  0  0  0  0  0  0  0  0  0
   22.1860   25.3960   36.6206 C   0  0  0  0  0  0  0  0  0  0  0  0
   23.3013   26.1205   36.1589 C   0  0  0  0  0  0  0  0  0  0  0  0
   23.5385   27.3828   36.6003 F   0  0  0  0  0  0  0  0  0  0  0  0
   25.6125   27.1137   35.2924 H   0  0  0  0  0  0  0  0  0  0  0  0
   32.0668   27.1429   34.4530 H   0  0  0  0  0  0  0  0  0  0  0  0
   33.3284   27.4627   32.3495 H   0  0  0  0  0  0  0  0  0  0  0  0
   32.1496   27.4414   30.1613 H   0  0  0  0  0  0  0  0  0  0  0  0
   29.7983   26.8254   30.0886 H   0  0  0  0  0  0  0  0  0  0  0  0
   26.4124   26.3493   30.9737 H   0  0  0  0  0  0  0  0  0  0  0  0
   27.8914   25.7239   30.2072 H   0  0  0  0  0  0  0  0  0  0  0  0
   22.7028   22.5481   34.8245 H   0  0  0  0  0  0  0  0  0  0  0  0
   19.9343   23.4821   35.8785 H   0  0  0  0  0  0  0  0  0  0  0  0
   21.0078   22.2208   36.5936 H   0  0  0  0  0  0  0  0  0  0  0  0
   18.9189   23.1885   39.4420 H   0  0  0  0  0  0  0  0  0  0  0  0
   19.4543   21.8329   38.4057 H   0  0  0  0  0  0  0  0  0  0  0  0
   18.3253   23.0797   37.7345 H   0  0  0  0  0  0  0  0  0  0  0  0
   19.1817   25.3835   37.3434 H   0  0  0  0  0  0  0  0  0  0  0  0
   19.7589   25.4315   39.0543 H   0  0  0  0  0  0  0  0  0  0  0  0
  1  2  1  0
  2  3  2  0
  2  4  1  0
  4  5  2  0
  5  6  1  0
  6  7  2  0
  7  8  1  0
  8  9  2  0
  9 10  1  0
 10 11  2  0
 11 12  1  0
 12 13  2  0
 13 14  1  0
  1 15  1  0
 15 16  2  0
 16 17  1  0
 17 18  2  0
 18 19  1  0
 19 20  1  0
 20 21  1  0
 20 22  1  0
 22 23  1  0
 23 24  2  0
 23 25  1  0
 25 26  2  0
 26 27  1  0
 13  4  1  0
 26 15  1  0
 12  7  1  0
 25 18  1  0
  1 28  1  0
  8 29  1  0
  9 30  1  0
 10 31  1  0
 11 32  1  0
 14 33  1  0
 14 34  1  0
 17 35  1  0
 19 36  1  0
 19 37  1  0
 21 38  1  0
 21 39  1  0
 21 40  1  0
 22 41  1  0
 22 42  1  0
M  END
$$$$
confid_5
     RDKit          3D

 42 45  0  0  0  0  0  0  0  0999 V2000
   25.3300   26.2600   34.7600 N   0  0  0  0  0  0  0  0  0  0  0  0
   26.1200   25.9200   33.6900 C   0  0  0  0  0  0  0  0  0  0  0  0
   25.6300   25.1100   32.9400 O   0  0  0  0  0  0  0  0  0  0  0  0
   27.5200   26.3800   33.4600 C   0  0  0  0  0  0  0  0  0  0  0  0
   28.1600   26.6300   34.6100 N   0  0  0  0  0  0  0  0  0  0  0  0
   29.4800   26.8500   34.5700 N   0  0  0  0  0  0  0  0  0  0  0  0
   30.1900   26.7800   33.4400 C   0  0  0  0  0  0  0  0  0  0  0  0
   31.5600   27.0500   33.5000 C   0  0  0  0  0  0  0  0  0  0  0  0
   32.2700   27.2400   32.3100 C   0  0  0  0  0  0  0  0  0  0  0  0
   31.6100   27.2500   31.0800 C   0  0  0  0  0  0  0  0  0  0  0  0
   30.2700   26.8700   31.0600 C   0  0  0  0  0  0  0  0  0  0  0  0
   29.5100   26.6900   32.2300 C   0  0  0  0  0  0  0  0  0  0  0  0
   28.1400   26.4100   32.2000 C   0  0  0  0  0  0  0  0  0  0  0  0
   27.4300   26.1300   31.0500 N   0  0  0  0  0  0  0  0  0  0  0  0
   24.1705   25.5343   35.2223 C   0  0  0  0  0  0  0  0  0  0  0  0
   23.9285   24.2655   34.7893 N   0  0  0  0  0  0  0  0  0  0  0  0
   22.8606   23.5438   35.2153 C   0  0  0  0  0  0  0  0  0  0  0  0
   21.9561   24.0972   36.1283 C   0  0  0  0  0  0  0  0  0  0  0  0
   20.7931   23.2840   36.6414 C   0  0  0  0  0  0  0  0  0  0  0  0
   19.6728   24.1656   37.0295 N   0  0  0  0  0  0  0  0  0  0  0  0
   18.5357   23.3578   37.4963 C   0  0  0  0  0  0  0  0  0  0  0  0
   20.0912   25.1055   38.0884 C   0  0  0  0  0  0  0  0  0  0  0  0
   21.2371   25.9508   37.6113 C   0  0  0  0  0  0  0  0  0  0  0  0
   21.4007   27.1028   38.0960 O   0  0  0  0  0  0  0  0  0  0  0  0
   22.1880   25.3928   36.6226 C   0  0  0  0  0  0  0  0  0  0  0  0
   23.3025   26.1184   36.1605 C   0  0  0  0  0  0  0  0  0  0  0  0
   23.5436   27.3776   36.6087 F   0  0  0  0  0  0  0  0  0  0  0  0
   25.6119   27.1142   35.2919 H   0  0  0  0  0  0  0  0  0  0  0  0
   32.0668   27.1425   34.4530 H   0  0  0  0  0  0  0  0  0  0  0  0
   33.3288   27.4609   32.3494 H   0  0  0  0  0  0  0  0  0  0  0  0
   32.1515   27.4336   30.1608 H   0  0  0  0  0  0  0  0  0  0  0  0
   29.8039   26.7906   30.0880 H   0  0  0  0  0  0  0  0  0  0  0  0
   26.8613   25.2623   30.9527 H   0  0  0  0  0  0  0  0  0  0  0  0
   27.5767   26.6942   30.1848 H   0  0  0  0  0  0  0  0  0  0  0  0
   22.7188   22.5374   34.8428 H   0  0  0  0  0  0  0  0  0  0  0  0
   21.1362   22.6740   37.5076 H   0  0  0  0  0  0  0  0  0  0  0  0
   20.4552   22.5905   35.8391 H   0  0  0  0  0  0  0  0  0  0  0  0
   18.8094   22.7514   38.3886 H   0  0  0  0  0  0  0  0  0  0  0  0
   18.1925   22.6773   36.6875 H   0  0  0  0  0  0  0  0  0  0  0  0
   17.6792   24.0169   37.7554 H   0  0  0  0  0  0  0  0  0  0  0  0
   19.2421   25.7747   38.3514 H   0  0  0  0  0  0  0  0  0  0  0  0
   20.4056   24.5578   39.0056 H   0  0  0  0  0  0  0  0  0  0  0  0
  1  2  1  0
  2  3  2  0
  2  4  1  0
  4  5  2  0
  5  6  1  0
  6  7  2  0
  7  8  1  0
  8  9  2  0
  9 10  1  0
 10 11  2  0
 11 12  1  0
 12 13  2  0
 13 14  1  0
  1 15  1  0
 15 16  2  0
 16 17  1  0
 17 18  2  0
 18 19  1  0
 19 20  1  0
 20 21  1  0
 20 22  1  0
 22 23  1  0
 23 24  2  0
 23 25  1  0
 25 26  2  0
 26 27  1  0
 13  4  1  0
 26 15  1  0
 12  7  1  0
 25 18  1  0
  1 28  1  0
  8 29  1  0
  9 30  1  0
 10 31  1  0
 11 32  1  0
 14 33  1  0
 14 34  1  0
 17 35  1  0
 19 36  1  0
 19 37  1  0
 21 38  1  0
 21 39  1  0
 21 40  1  0
 22 41  1  0
 22 42  1  0
M  END
$$$$
confid_6
     RDKit          3D

 42 45  0  0  0  0  0  0  0  0999 V2000
   25.3300   26.2600   34.7600 N   0  0  0  0  0  0  0  0  0  0  0  0
   26.1200   25.9200   33.6900 C   0  0  0  0  0  0  0  0  0  0  0  0
   25.6300   25.1100   32.9400 O   0  0  0  0  0  0  0  0  0  0  0  0
   27.5200   26.3800   33.4600 C   0  0  0  0  0  0  0  0  0  0  0  0
   28.1600   26.6300   34.6100 N   0  0  0  0  0  0  0  0  0  0  0  0
   29.4800   26.8500   34.5700 N   0  0  0  0  0  0  0  0  0  0  0  0
   30.1900   26.7800   33.4400 C   0  0  0  0  0  0  0  0  0  0  0  0
   31.5600   27.0500   33.5000 C   0  0  0  0  0  0  0  0  0  0  0  0
   32.2700   27.2400   32.3100 C   0  0  0  0  0  0  0  0  0  0  0  0
   31.6100   27.2500   31.0800 C   0  0  0  0  0  0  0  0  0  0  0  0
   30.2700   26.8700   31.0600 C   0  0  0  0  0  0  0  0  0  0  0  0
   29.5100   26.6900   32.2300 C   0  0  0  0  0  0  0  0  0  0  0  0
   28.1400   26.4100   32.2000 C   0  0  0  0  0  0  0  0  0  0  0  0
   27.4300   26.1300   31.0500 N   0  0  0  0  0  0  0  0  0  0  0  0
   23.8974   26.0954   34.8269 C   0  0  0  0  0  0  0  0  0  0  0  0
   23.1780   25.8281   33.7014 N   0  0  0  0  0  0  0  0  0  0  0  0
   21.8281   25.6851   33.7192 C   0  0  0  0  0  0  0  0  0  0  0  0
   21.1233   25.8067   34.9219 C   0  0  0  0  0  0  0  0  0  0  0  0
   19.6185   25.6946   34.9412 C   0  0  0  0  0  0  0  0  0  0  0  0
   19.1493   25.2153   36.2576 N   0  0  0  0  0  0  0  0  0  0  0  0
   17.6846   25.0802   36.2508 C   0  0  0  0  0  0  0  0  0  0  0  0
   19.5644   26.1427   37.3288 C   0  0  0  0  0  0  0  0  0  0  0  0
   21.0606   26.2675   37.3583 C   0  0  0  0  0  0  0  0  0  0  0  0
   21.6373   26.5508   38.4427 O   0  0  0  0  0  0  0  0  0  0  0  0
   21.8265   26.1127   36.1003 C   0  0  0  0  0  0  0  0  0  0  0  0
   23.2265   26.2525   36.0517 C   0  0  0  0  0  0  0  0  0  0  0  0
   23.9346   26.5316   37.1766 F   0  0  0  0  0  0  0  0  0  0  0  0
   25.7976   26.7252   35.5700 H   0  0  0  0  0  0  0  0  0  0  0  0
   32.0668   27.1429   34.4530 H   0  0  0  0  0  0  0  0  0  0  0  0
   33.3284   27.4627   32.3495 H   0  0  0  0  0  0  0  0  0  0  0  0
   32.1496   27.4414   30.1613 H   0  0  0  0  0  0  0  0  0  0  0  0
   29.7983   26.8254   30.0886 H   0  0  0  0  0  0  0  0  0  0  0  0
   26.4123   26.3491   30.9739 H   0  0  0  0  0  0  0  0  0  0  0  0
   27.8914   25.7241   30.2071 H   0  0  0  0  0  0  0  0  0  0  0  0
   21.3052   25.4784   32.7943 H   0  0  0  0  0  0  0  0  0  0  0  0
   19.2995   24.9767   34.1527 H   0  0  0  0  0  0  0  0  0  0  0  0
   19.1813   26.6908   34.7028 H   0  0  0  0  0  0  0  0  0  0  0  0
   17.3715   24.3520   35.4720 H   0  0  0  0  0  0  0  0  0  0  0  0
   17.1891   26.0573   36.0537 H   0  0  0  0  0  0  0  0  0  0  0  0
   17.3323   24.6863   37.2284 H   0  0  0  0  0  0  0  0  0  0  0  0
   19.2214   25.7544   38.3135 H   0  0  0  0  0  0  0  0  0  0  0  0
   19.1221   27.1529   37.1747 H   0  0  0  0  0  0  0  0  0  0  0  0
  1  2  1  0
  2  3  2  0
  2  4  1  0
  4  5  2  0
  5  6  1  0
  6  7  2  0
  7  8  1  0
  8  9  2  0
  9 10  1  0
 10 11  2  0
 11 12  1  0
 12 13  2  0
 13 14  1  0
  1 15  1  0
 15 16  2  0
 16 17  1  0
 17 18  2  0
 18 19  1  0
 19 20  1  0
 20 21  1  0
 20 22  1  0
 22 23  1  0
 23 24  2  0
 23 25  1  0
 25 26  2  0
 26 27  1  0
 13  4  1  0
 26 15  1  0
 12  7  1  0
 25 18  1  0
  1 28  1  0
  8 29  1  0
  9 30  1  0
 10 31  1  0
 11 32  1  0
 14 33  1  0
 14 34  1  0
 17 35  1  0
 19 36  1  0
 19 37  1  0
 21 38  1  0
 21 39  1  0
 21 40  1  0
 22 41  1  0
 22 42  1  0
M  END
$$$$
