confid_0
     RDKit          3D

 45 48  0  0  0  0  0  0  0  0999 V2000
   25.3300   26.2600   34.7600 N   0  0  0  0  0  0  0  0  0  0  0  0
   26.1200   25.9200   33.6900 C   0  0  0  0  0  0  0  0  0  0  0  0
   25.6300   25.1100   32.9400 O   0  0  0  0  0  0  0  0  0  0  0  0
   27.5200   26.3800   33.4600 C   0  0  0  0  0  0  0  0  0  0  0  0
   28.1600   26.6300   34.6100 N   0  0  0  0  0  0  0  0  0  0  0  0
   29.4800   26.8500   34.5700 N   0  0  0  0  0  0  0  0  0  0  0  0
   30.1900   26.7800   33.4400 C   0  0  0  0  0  0  0  0  0  0  0  0
   31.5600   27.0500   33.5000 C   0  0  0  0  0  0  0  0  0  0  0  0
   32.2700   27.2400   32.3100 C   0  0  0  0  0  0  0  0  0  0  0  0
   31.6100   27.2500   31.0800 C   0  0  0  0  0  0  0  0  0  0  0  0
   30.2700   26.8700   31.0600 C   0  0  0  0  0  0  0  0  0  0  0  0
   29.5100   26.6900   32.2300 C   0  0  0  0  0  0  0  0  0  0  0  0
   28.1400   26.4100   32.2000 C   0  0  0  0  0  0  0  0  0  0  0  0
   27.4300   26.1300   31.0500 N   0  0  0  0  0  0  0  0  0  0  0  0
   24.2312   25.4867   35.2761 C   0  0  0  0  0  0  0  0  0  0  0  0
   23.1871   26.1398   35.8773 N   0  0  0  0  0  0  0  0  0  0  0  0
   22.1231   25.4795   36.4199 C   0  0  0  0  0  0  0  0  0  0  0  0
   22.1036   24.0891   36.3717 C   0  0  0  0  0  0  0  0  0  0  0  0
   21.0631   23.1443   36.9016 C   0  0  0  0  0  0  0  0  0  0  0  0
   21.6219   21.8252   36.5874 N   0  0  0  0  0  0  0  0  0  0  0  0
   22.8640   22.0037   35.9113 C   0  0  0  0  0  0  0  0  0  0  0  0
   23.5823   21.0648   35.4762 O   0  0  0  0  0  0  0  0  0  0  0  0
   23.1483   23.4111   35.7916 C   0  0  0  0  0  0  0  0  0  0  0  0
   24.2390   24.0739   35.2378 C   0  0  0  0  0  0  0  0  0  0  0  0
   20.9595   20.5489   36.8438 C   0  0  0  0  0  0  0  0  0  0  0  0
   21.6941   19.7820   37.9463 C   0  0  0  0  0  0  0  0  0  0  0  0
   21.0006   18.4582   38.2535 C   0  0  0  0  0  0  0  0  0  0  0  0
   25.5115   27.1855   35.2099 H   0  0  0  0  0  0  0  0  0  0  0  0
   32.0668   27.1429   34.4530 H   0  0  0  0  0  0  0  0  0  0  0  0
   33.3284   27.4626   32.3495 H   0  0  0  0  0  0  0  0  0  0  0  0
   32.1496   27.4414   30.1613 H   0  0  0  0  0  0  0  0  0  0  0  0
   29.7983   26.8254   30.0886 H   0  0  0  0  0  0  0  0  0  0  0  0
   26.4124   26.3491   30.9738 H   0  0  0  0  0  0  0  0  0  0  0  0
   27.8914   25.7241   30.2071 H   0  0  0  0  0  0  0  0  0  0  0  0
   21.3151   26.0305   36.8821 H   0  0  0  0  0  0  0  0  0  0  0  0
   20.9454   23.2627   37.9996 H   0  0  0  0  0  0  0  0  0  0  0  0
   20.0975   23.2923   36.3729 H   0  0  0  0  0  0  0  0  0  0  0  0
   25.0659   23.5142   34.8211 H   0  0  0  0  0  0  0  0  0  0  0  0
   20.9375   19.9507   35.9071 H   0  0  0  0  0  0  0  0  0  0  0  0
   19.9098   20.7344   37.1615 H   0  0  0  0  0  0  0  0  0  0  0  0
   22.7389   19.5755   37.6296 H   0  0  0  0  0  0  0  0  0  0  0  0
   21.7230   20.3996   38.8704 H   0  0  0  0  0  0  0  0  0  0  0  0
   19.9606   18.6383   38.6004 H   0  0  0  0  0  0  0  0  0  0  0  0
   20.9798   17.8147   37.3483 H   0  0  0  0  0  0  0  0  0  0  0  0
   21.5546   17.9257   39.0551 H   0  0  0  0  0  0  0  0  0  0  0  0
  1  2  1  0
  2  3  2  0
  2  4  1  0
  4  5  2  0
  5  6  1  0
  6  7  2  0
  7  8  1  0
  8  9  2  0
  9 10  1  0
 10 11  2  0
 11 12  1  0
 12 13  2  0
 13 14  1  0
  1 15  1  0
 15 16  2  0
 16 17  1  0
 17 18  2  0
 18 19  1  0
 19 20  1  0
 20 21  1  0
 21 22  2  0
 21 23  1  0
 23 24  2  0
 20 25  1  0
 25 26  1  0
 26 27  1  0
 13  4  1  0
 24 15  1  0
 12  7  1  0
 23 18  1  0
  1 28  1  0
  8 29  1  0
  9 30  1  0
 10 31  1  0
 11 32  1  0
 14 33  1  0
 14 34  1  0
 17 35  1  0
 19 36  1  0
 19 37  1  0
 24 38  1  0
 25 39  1  0
 25 40  1  0
 26 41  1  0
 26 42  1  0
 27 43  1  0
 27 44  1  0
 27 45  1  0
M  END
$$$$
confid_1
     RDKit          3D

 45 48  0  0  0  0  0  0  0  0999 V2000
   25.3300   26.2600   34.7600 N   0  0  0  0  0  0  0  0  0  0  0  0
   26.1200   25.9200   33.6900 C   0  0  0  0  0  0  0  0  0  0  0  0
   25.6300   25.1100   32.9400 O   0  0  0  0  0  0  0  0  0  0  0  0
   27.5200   26.3800   33.4600 C   0  0  0  0  0  0  0  0  0  0  0  0
   28.1600   26.6300   34.6100 N   0  0  0  0  0  0  0  0  0  0  0  0
   29.4800   26.8500   34.5700 N   0  0  0  0  0  0  0  0  0  0  0  0
   30.1900   26.7800   33.4400 C   0  0  0  0  0  0  0  0  0  0  0  0
   31.5600   27.0500   33.5000 C   0  0  0  0  0  0  0  0  0  0  0  0
   32.2700   27.2400   32.3100 C   0  0  0  0  0  0  0  0  0  0  0  0
   31.6100   27.2500   31.0800 C   0  0  0  0  0  0  0  0  0  0  0  0
   30.2700   26.8700   31.0600 C   0  0  0  0  0  0  0  0  0  0  0  0
   29.5100   26.6900   32.2300 C   0  0  0  0  0  0  0  0  0  0  0  0
   28.1400   26.4100   32.2000 C   0  0  0  0  0  0  0  0  0  0  0  0
   27.4300   26.1300   31.0500 N   0  0  0  0  0  0  0  0  0  0  0  0
   23.8917   26.2062   34.7827 C   0  0  0  0  0  0  0  0  0  0  0  0
   23.2549   26.0263   35.9829 N   0  0  0  0  0  0  0  0  0  0  0  0
   21.8952   25.9915   36.0946 C   0  0  0  0  0  0  0  0  0  0  0  0
   21.1257   26.1570   34.9474 C   0  0  0  0  0  0  0  0  0  0  0  0
   19.6299   26.1633   34.8113 C   0  0  0  0  0  0  0  0  0  0  0  0
   19.4279   26.4148   33.3806 N   0  0  0  0  0  0  0  0  0  0  0  0
   20.7020   26.5155   32.7496 C   0  0  0  0  0  0  0  0  0  0  0  0
   20.8760   26.6953   31.5150 O   0  0  0  0  0  0  0  0  0  0  0  0
   21.7407   26.3585   33.7355 C   0  0  0  0  0  0  0  0  0  0  0  0
   23.1255   26.3966   33.6101 C   0  0  0  0  0  0  0  0  0  0  0  0
   18.1324   26.4349   32.7060 C   0  0  0  0  0  0  0  0  0  0  0  0
   17.8002   27.8535   32.2364 C   0  0  0  0  0  0  0  0  0  0  0  0
   16.4361   27.9032   31.5549 C   0  0  0  0  0  0  0  0  0  0  0  0
   25.8019   26.5650   35.6406 H   0  0  0  0  0  0  0  0  0  0  0  0
   32.0667   27.1430   34.4530 H   0  0  0  0  0  0  0  0  0  0  0  0
   33.3284   27.4627   32.3495 H   0  0  0  0  0  0  0  0  0  0  0  0
   32.1497   27.4414   30.1613 H   0  0  0  0  0  0  0  0  0  0  0  0
   29.7983   26.8255   30.0885 H   0  0  0  0  0  0  0  0  0  0  0  0
   27.8914   25.7243   30.2070 H   0  0  0  0  0  0  0  0  0  0  0  0
   26.4122   26.3488   30.9741 H   0  0  0  0  0  0  0  0  0  0  0  0
   21.4291   25.8415   37.0591 H   0  0  0  0  0  0  0  0  0  0  0  0
   19.1817   26.9809   35.4145 H   0  0  0  0  0  0  0  0  0  0  0  0
   19.2096   25.1750   35.0939 H   0  0  0  0  0  0  0  0  0  0  0  0
   23.5827   26.5910   32.6490 H   0  0  0  0  0  0  0  0  0  0  0  0
   18.1575   25.7379   31.8401 H   0  0  0  0  0  0  0  0  0  0  0  0
   17.3441   26.0859   33.4087 H   0  0  0  0  0  0  0  0  0  0  0  0
   18.5737   28.2040   31.5199 H   0  0  0  0  0  0  0  0  0  0  0  0
   17.7943   28.5407   33.1105 H   0  0  0  0  0  0  0  0  0  0  0  0
   15.6396   27.5866   32.2615 H   0  0  0  0  0  0  0  0  0  0  0  0
   16.2235   28.9415   31.2232 H   0  0  0  0  0  0  0  0  0  0  0  0
   16.4244   27.2368   30.6661 H   0  0  0  0  0  0  0  0  0  0  0  0
  1  2  1  0
  2  3  2  0
  2  4  1  0
  4  5  2  0
  5  6  1  0
  6  7  2  0
  7  8  1  0
  8  9  2  0
  9 10  1  0
 10 11  2  0
 11 12  1  0
 12 13  2  0
 13 14  1  0
  1 15  1  0
 15 16  2  0
 16 17  1  0
 17 18  2  0
 18 19  1  0
 19 20  1  0
 20 21  1  0
 21 22  2  0
 21 23  1  0
 23 24  2  0
 20 25  1  0
 25 26  1  0
 26 27  1  0
 13  4  1  0
 24 15  1  0
 12  7  1  0
 23 18  1  0
  1 28  1  0
  8 29  1  0
  9 30  1  0
 10 31  1  0
 11 32  1  0
 14 33  1  0
 14 34  1  0
 17 35  1  0
 19 36  1  0
 19 37  1  0
 24 38  1  0
 25 39  1  0
 25 40  1  0
 26 41  1  0
 26 42  1  0
 27 43  1  0
 27 44  1  0
 27 45  1  0
M  END
$$$$
confid_2
     RDKit          3D

 45 48  0  0  0  0  0  0  0  0999 V2000
   25.3300   26.2600   34.7600 N   0  0  0  0  0  0  0  0  0  0  0  0
   26.1200   25.9200   33.6900 C   0  0  0  0  0  0  0  0  0  0  0  0
   25.6300   25.1100   32.9400 O   0  0  0  0  0  0  0  0  0  0  0  0
   27.5200   26.3800   33.4600 C   0  0  0  0  0  0  0  0  0  0  0  0
   28.1600   26.6300   34.6100 N   0  0  0  0  0  0  0  0  0  0  0  0
   29.4800   26.8500   34.5700 N   0  0  0  0  0  0  0  0  0  0  0  0
   30.1900   26.7800   33.4400 C   0  0  0  0  0  0  0  0  0  0  0  0
   31.5600   27.0500   33.5000 C   0  0  0  0  0  0  0  0  0  0  0  0
   32.2700   27.2400   32.3100 C   0  0  0  0  0  0  0  0  0  0  0  0
   31.6100   27.2500   31.0800 C   0  0  0  0  0  0  0  0  0  0  0  0
   30.2700   26.8700   31.0600 C   0  0  0  0  0  0  0  0  0  0  0  0
   29.5100   26.6900   32.2300 C   0  0  0  0  0  0  0  0  0  0  0  0
   28.1400   26.4100   32.2000 C   0  0  0  0  0  0  0  0  0  0  0  0
   27.4300   26.1300   31.0500 N   0  0  0  0  0  0  0  0  0  0  0  0
   24.1458   25.5647   35.2026 C   0  0  0  0  0  0  0  0  0  0  0  0
   23.8195   24.3314   34.6961 N   0  0  0  0  0  0  0  0  0  0  0  0
   22.7179   23.6379   35.1062 C   0  0  0  0  0  0  0  0  0  0  0  0
   21.8973   24.2013   36.0784 C   0  0  0  0  0  0  0  0  0  0  0  0
   20.6486   23.6398   36.6962 C   0  0  0  0  0  0  0  0  0  0  0  0
   20.2441   24.6886   37.6384 N   0  0  0  0  0  0  0  0  0  0  0  0
   21.1971   25.7471   37.5816 C   0  0  0  0  0  0  0  0  0  0  0  0
   21.1560   26.7848   38.2944 O   0  0  0  0  0  0  0  0  0  0  0  0
   22.2086   25.4314   36.6055 C   0  0  0  0  0  0  0  0  0  0  0  0
   23.3300   26.1449   36.1948 C   0  0  0  0  0  0  0  0  0  0  0  0
   19.1043   24.6077   38.5480 C   0  0  0  0  0  0  0  0  0  0  0  0
   18.0136   25.5929   38.1205 C   0  0  0  0  0  0  0  0  0  0  0  0
   16.7986   25.5038   39.0388 C   0  0  0  0  0  0  0  0  0  0  0  0
   25.6231   27.0998   35.3092 H   0  0  0  0  0  0  0  0  0  0  0  0
   32.0668   27.1429   34.4530 H   0  0  0  0  0  0  0  0  0  0  0  0
   33.3284   27.4627   32.3495 H   0  0  0  0  0  0  0  0  0  0  0  0
   32.1496   27.4414   30.1613 H   0  0  0  0  0  0  0  0  0  0  0  0
   29.7983   26.8254   30.0886 H   0  0  0  0  0  0  0  0  0  0  0  0
   26.4124   26.3493   30.9737 H   0  0  0  0  0  0  0  0  0  0  0  0
   27.8914   25.7239   30.2072 H   0  0  0  0  0  0  0  0  0  0  0  0
   22.4930   22.6682   34.6830 H   0  0  0  0  0  0  0  0  0  0  0  0
   19.8625   23.4869   35.9268 H   0  0  0  0  0  0  0  0  0  0  0  0
   20.8725   22.6968   37.2387 H   0  0  0  0  0  0  0  0  0  0  0  0
   23.5611   27.1114   36.6245 H   0  0  0  0  0  0  0  0  0  0  0  0
   18.6928   23.5746   38.5345 H   0  0  0  0  0  0  0  0  0  0  0  0
   19.4425   24.8323   39.5829 H   0  0  0  0  0  0  0  0  0  0  0  0
   17.6987   25.3664   37.0786 H   0  0  0  0  0  0  0  0  0  0  0  0
   18.4108   26.6302   38.1492 H   0  0  0  0  0  0  0  0  0  0  0  0
   17.0867   25.7462   40.0840 H   0  0  0  0  0  0  0  0  0  0  0  0
   16.3634   24.4823   39.0054 H   0  0  0  0  0  0  0  0  0  0  0  0
   16.0270   26.2294   38.7056 H   0  0  0  0  0  0  0  0  0  0  0  0
  1  2  1  0
  2  3  2  0
  2  4  1  0
  4  5  2  0
  5  6  1  0
  6  7  2  0
  7  8  1  0
  8  9  2  0
  9 10  1  0
 10 11  2  0
 11 12  1  0
 12 13  2  0
 13 14  1  0
  1 15  1  0
 15 16  2  0
 16 17  1  0
 17 18  2  0
 18 19  1  0
 19 20  1  0
 20 21  1  0
 21 22  2  0
 21 23  1  0
 23 24  2  0
 20 25  1  0
 25 26  1  0
 26 27  1  0
 13  4  1  0
 24 15  1  0
 12  7  1  0
 23 18  1  0
  1 28  1  0
  8 29  1  0
  9 30  1  0
 10 31  1  0
 11 32  1  0
 14 33  1  0
 14 34  1  0
 17 35  1  0
 19 36  1  0
 19 37  1  0
 24 38  1  0
 25 39  1  0
 25 40  1  0
 26 41  1  0
 26 42  1  0
 27 43  1  0
 27 44  1  0
 27 45  1  0
M  END
$$$$
confid_3
     RDKit          3D

 45 48  0  0  0  0  0  0  0  0999 V2000
   25.3300   26.2600   34.7600 N   0  0  0  0  0  0  0  0  0  0  0  0
   26.1200   25.9200   33.6900 C   0  0  0  0  0  0  0  0  0  0  0  0
   25.6300   25.1100   32.9400 O   0  0  0  0  0  0  0  0  0  0  0  0
   27.5200   26.3800   33.4600 C   0  0  0  0  0  0  0  0  0  0  0  0
   28.1600   26.6300   34.6100 N   0  0  0  0  0  0  0  0  0  0  0  0
   29.4800   26.8500   34.5700 N   0  0  0  0  0  0  0  0  0  0  0  0
   30.1900   26.7800   33.4400 C   0  0  0  0  0  0  0  0  0  0  0  0
   31.5600   27.0500   33.5000 C   0  0  0  0  0  0  0  0  0  0  0  0
   32.2700   27.2400   32.3100 C   0  0  0  0  0  0  0  0  0  0  0  0
   31.6100   27.2500   31.0800 C   0  0  0  0  0  0  0  0  0  0  0  0
   30.2700   26.8700   31.0600 C   0  0  0  0  0  0  0  0  0  0  0  0
   29.5100   26.6900   32.2300 C   0  0  0  0  0  0  0  0  0  0  0  0
   28.1400   26.4100   32.2000 C   0  0  0  0  0  0  0  0  0  0  0  0
   27.4300   26.1300   31.0500 N   0  0  0  0  0  0  0  0  0  0  0  0
   23.8912   26.2142   34.7804 C   0  0  0  0  0  0  0  0  0  0  0  0
   23.2517   26.0479   35.9811 N   0  0  0  0  0  0  0  0  0  0  0  0
   21.8916   26.0204   36.0908 C   0  0  0  0  0  0  0  0  0  0  0  0
   21.1246   26.1787   34.9408 C   0  0  0  0  0  0  0  0  0  0  0  0
   19.6292   26.1902   34.8024 C   0  0  0  0  0  0  0  0  0  0  0  0
   19.4300   26.4245   33.3674 N   0  0  0  0  0  0  0  0  0  0  0  0
   20.7062   26.5192   32.7392 C   0  0  0  0  0  0  0  0  0  0  0  0
   20.8839   26.7025   31.5057 O   0  0  0  0  0  0  0  0  0  0  0  0
   21.7423   26.3662   33.7283 C   0  0  0  0  0  0  0  0  0  0  0  0
   23.1275   26.3985   33.6051 C   0  0  0  0  0  0  0  0  0  0  0  0
   18.1358   26.4381   32.6867 C   0  0  0  0  0  0  0  0  0  0  0  0
   17.5935   25.0174   32.4892 C   0  0  0  0  0  0  0  0  0  0  0  0
   18.4783   24.1810   31.5667 C   0  0  0  0  0  0  0  0  0  0  0  0
   25.8021   26.5624   35.6414 H   0  0  0  0  0  0  0  0  0  0  0  0
   32.0668   27.1429   34.4530 H   0  0  0  0  0  0  0  0  0  0  0  0
   33.3284   27.4627   32.3495 H   0  0  0  0  0  0  0  0  0  0  0  0
   32.1496   27.4414   30.1613 H   0  0  0  0  0  0  0  0  0  0  0  0
   29.7983   26.8254   30.0886 H   0  0  0  0  0  0  0  0  0  0  0  0
   26.4122   26.3487   30.9741 H   0  0  0  0  0  0  0  0  0  0  0  0
   27.8914   25.7243   30.2070 H   0  0  0  0  0  0  0  0  0  0  0  0
   21.4234   25.8817   37.0561 H   0  0  0  0  0  0  0  0  0  0  0  0
   19.1845   27.0175   35.3950 H   0  0  0  0  0  0  0  0  0  0  0  0
   19.2073   25.2077   35.1013 H   0  0  0  0  0  0  0  0  0  0  0  0
   23.5865   26.5825   32.6427 H   0  0  0  0  0  0  0  0  0  0  0  0
   17.4121   27.0179   33.2990 H   0  0  0  0  0  0  0  0  0  0  0  0
   18.2244   26.9510   31.7043 H   0  0  0  0  0  0  0  0  0  0  0  0
   16.5782   25.0843   32.0422 H   0  0  0  0  0  0  0  0  0  0  0  0
   17.4977   24.5078   33.4719 H   0  0  0  0  0  0  0  0  0  0  0  0
   19.4713   24.0076   32.0322 H   0  0  0  0  0  0  0  0  0  0  0  0
   17.9998   23.1949   31.3889 H   0  0  0  0  0  0  0  0  0  0  0  0
   18.6119   24.6922   30.5896 H   0  0  0  0  0  0  0  0  0  0  0  0
  1  2  1  0
  2  3  2  0
  2  4  1  0
  4  5  2  0
  5  6  1  0
  6  7  2  0
  7  8  1  0
  8  9  2  0
  9 10  1  0
 10 11  2  0
 11 12  1  0
 12 13  2  0
 13 14  1  0
  1 15  1  0
 15 16  2  0
 16 17  1  0
 17 18  2  0
 18 19  1  0
 19 20  1  0
 20 21  1  0
 21 22  2  0
 21 23  1  0
 23 24  2  0
 20 25  1  0
 25 26  1  0
 26 27  1  0
 13  4  1  0
 24 15  1  0
 12  7  1  0
 23 18  1  0
  1 28  1  0
  8 29  1  0
  9 30  1  0
 10 31  1  0
 11 32  1  0
 14 33  1  0
 14 34  1  0
 17 35  1  0
 19 36  1  0
 19 37  1  0
 24 38  1  0
 25 39  1  0
 25 40  1  0
 26 41  1  0
 26 42  1  0
 27 43  1  0
 27 44  1  0
 27 45  1  0
M  END
$$$$
confid_4
     RDKit          3D

 45 48  0  0  0  0  0  0  0  0999 V2000
   25.3300   26.2600   34.7600 N   0  0  0  0  0  0  0  0  0  0  0  0
   26.1200   25.9200   33.6900 C   0  0  0  0  0  0  0  0  0  0  0  0
   25.6300   25.1100   32.9400 O   0  0  0  0  0  0  0  0  0  0  0  0
   27.5200   26.3800   33.4600 C   0  0  0  0  0  0  0  0  0  0  0  0
   28.1600   26.6300   34.6100 N   0  0  0  0  0  0  0  0  0  0  0  0
   29.4800   26.8500   34.5700 N   0  0  0  0  0  0  0  0  0  0  0  0
   30.1900   26.7800   33.4400 C   0  0  0  0  0  0  0  0  0  0  0  0
   31.5600   27.0500   33.5000 C   0  0  0  0  0  0  0  0  0  0  0  0
   32.2700   27.2400   32.3100 C   0  0  0  0  0  0  0  0  0  0  0  0
   31.6100   27.2500   31.0800 C   0  0  0  0  0  0  0  0  0  0  0  0
   30.2700   26.8700   31.0600 C   0  0  0  0  0  0  0  0  0  0  0  0
   29.5100   26.6900   32.2300 C   0  0  0  0  0  0  0  0  0  0  0  0
   28.1400   26.4100   32.2000 C   0  0  0  0  0  0  0  0  0  0  0  0
   27.4300   26.1300   31.0500 N   0  0  0  0  0  0  0  0  0  0  0  0
   23.8911   26.2187   34.7787 C   0  0  0  0  0  0  0  0  0  0  0  0
   23.2496   26.0539   35.9785 N   0  0  0  0  0  0  0  0  0  0  0  0
   21.8893   26.0321   36.0868 C   0  0  0  0  0  0  0  0  0  0  0  0
   21.1241   26.1946   34.9362 C   0  0  0  0  0  0  0  0  0  0  0  0
   19.6290   26.2159   34.7965 C   0  0  0  0  0  0  0  0  0  0  0  0
   19.4328   26.4625   33.3638 N   0  0  0  0  0  0  0  0  0  0  0  0
   20.7095   26.5408   32.7347 C   0  0  0  0  0  0  0  0  0  0  0  0
   20.8888   26.7061   31.4989 O   0  0  0  0  0  0  0  0  0  0  0  0
   21.7440   26.3804   33.7245 C   0  0  0  0  0  0  0  0  0  0  0  0
   23.1294   26.4067   33.6027 C   0  0  0  0  0  0  0  0  0  0  0  0
   18.1370   26.5030   32.6882 C   0  0  0  0  0  0  0  0  0  0  0  0
   17.8408   27.9032   32.1383 C   0  0  0  0  0  0  0  0  0  0  0  0
   17.7341   28.9464   33.2489 C   0  0  0  0  0  0  0  0  0  0  0  0
   25.8022   26.5590   35.6425 H   0  0  0  0  0  0  0  0  0  0  0  0
   32.0668   27.1425   34.4530 H   0  0  0  0  0  0  0  0  0  0  0  0
   33.3288   27.4609   32.3494 H   0  0  0  0  0  0  0  0  0  0  0  0
   32.1515   27.4336   30.1608 H   0  0  0  0  0  0  0  0  0  0  0  0
   29.8039   26.7906   30.0880 H   0  0  0  0  0  0  0  0  0  0  0  0
   27.5766   26.6944   30.1848 H   0  0  0  0  0  0  0  0  0  0  0  0
   26.8595   25.2635   30.9530 H   0  0  0  0  0  0  0  0  0  0  0  0
   21.4195   25.8951   37.0515 H   0  0  0  0  0  0  0  0  0  0  0  0
   19.1883   27.0401   35.3962 H   0  0  0  0  0  0  0  0  0  0  0  0
   19.1977   25.2333   35.0831 H   0  0  0  0  0  0  0  0  0  0  0  0
   23.5903   26.5899   32.6411 H   0  0  0  0  0  0  0  0  0  0  0  0
   17.3323   26.2051   33.3954 H   0  0  0  0  0  0  0  0  0  0  0  0
   18.1380   25.7710   31.8524 H   0  0  0  0  0  0  0  0  0  0  0  0
   18.6335   28.2070   31.4218 H   0  0  0  0  0  0  0  0  0  0  0  0
   16.8775   27.8717   31.5848 H   0  0  0  0  0  0  0  0  0  0  0  0
   16.9555   28.6509   33.9840 H   0  0  0  0  0  0  0  0  0  0  0  0
   17.4544   29.9272   32.8102 H   0  0  0  0  0  0  0  0  0  0  0  0
   18.7082   29.0603   33.7698 H   0  0  0  0  0  0  0  0  0  0  0  0
  1  2  1  0
  2  3  2  0
  2  4  1  0
  4  5  2  0
  5  6  1  0
  6  7  2  0
  7  8  1  0
  8  9  2  0
  9 10  1  0
 10 11  2  0
 11 12  1  0
 12 13  2  0
 13 14  1  0
  1 15  1  0
 15 16  2  0
 16 17  1  0
 17 18  2  0
 18 19  1  0
 19 20  1  0
 20 21  1  0
 21 22  2  0
 21 23  1  0
 23 24  2  0
 20 25  1  0
 25 26  1  0
 26 27  1  0
 13  4  1  0
 24 15  1  0
 12  7  1  0
 23 18  1  0
  1 28  1  0
  8 29  1  0
  9 30  1  0
 10 31  1  0
 11 32  1  0
 14 33  1  0
 14 34  1  0
 17 35  1  0
 19 36  1  0
 19 37  1  0
 24 38  1  0
 25 39  1  0
 25 40  1  0
 26 41  1  0
 26 42  1  0
 27 43  1  0
 27 44  1  0
 27 45  1  0
M  END
$$$$
confid_5
     RDKit          3D

 45 48  0  0  0  0  0  0  0  0999 V2000
   25.3300   26.2600   34.7600 N   0  0  0  0  0  0  0  0  0  0  0  0
   26.1200   25.9200   33.6900 C   0  0  0  0  0  0  0  0  0  0  0  0
   25.6300   25.1100   32.9400 O   0  0  0  0  0  0  0  0  0  0  0  0
   27.5200   26.3800   33.4600 C   0  0  0  0  0  0  0  0  0  0  0  0
   28.1600   26.6300   34.6100 N   0  0  0  0  0  0  0  0  0  0  0  0
   29.4800   26.8500   34.5700 N   0  0  0  0  0  0  0  0  0  0  0  0
   30.1900   26.7800   33.4400 C   0  0  0  0  0  0  0  0  0  0  0  0
   31.5600   27.0500   33.5000 C   0  0  0  0  0  0  0  0  0  0  0  0
   32.2700   27.2400   32.3100 C   0  0  0  0  0  0  0  0  0  0  0  0
   31.6100   27.2500   31.0800 C   0  0  0  0  0  0  0  0  0  0  0  0
   30.2700   26.8700   31.0600 C   0  0  0  0  0  0  0  0  0  0  0  0
   29.5100   26.6900   32.2300 C   0  0  0  0  0  0  0  0  0  0  0  0
   28.1400   26.4100   32.2000 C   0  0  0  0  0  0  0  0  0  0  0  0
   27.4300   26.1300   31.0500 N   0  0  0  0  0  0  0  0  0  0  0  0
   24.2372   25.4816   35.2814 C   0  0  0  0  0  0  0  0  0  0  0  0
   23.1937   26.1297   35.8890 N   0  0  0  0  0  0  0  0  0  0  0  0
   22.1353   25.4642   36.4364 C   0  0  0  0  0  0  0  0  0  0  0  0
   22.1215   24.0738   36.3865 C   0  0  0  0  0  0  0  0  0  0  0  0
   21.0874   23.1242   36.9200 C   0  0  0  0  0  0  0  0  0  0  0  0
   21.6487   21.8069   36.5985 N   0  0  0  0  0  0  0  0  0  0  0  0
   22.8893   21.9925   35.9214 C   0  0  0  0  0  0  0  0  0  0  0  0
   23.6177   21.0575   35.4949 O   0  0  0  0  0  0  0  0  0  0  0  0
   23.1661   23.4010   35.8008 C   0  0  0  0  0  0  0  0  0  0  0  0
   24.2510   24.0689   35.2422 C   0  0  0  0  0  0  0  0  0  0  0  0
   20.9870   20.5257   36.8413 C   0  0  0  0  0  0  0  0  0  0  0  0
   19.8843   20.2624   35.8089 C   0  0  0  0  0  0  0  0  0  0  0  0
   20.4365   20.1258   34.3915 C   0  0  0  0  0  0  0  0  0  0  0  0
   25.5082   27.1874   35.2072 H   0  0  0  0  0  0  0  0  0  0  0  0
   32.0668   27.1429   34.4530 H   0  0  0  0  0  0  0  0  0  0  0  0
   33.3284   27.4627   32.3495 H   0  0  0  0  0  0  0  0  0  0  0  0
   32.1496   27.4414   30.1613 H   0  0  0  0  0  0  0  0  0  0  0  0
   29.7983   26.8254   30.0886 H   0  0  0  0  0  0  0  0  0  0  0  0
   27.8914   25.7239   30.2072 H   0  0  0  0  0  0  0  0  0  0  0  0
   26.4124   26.3492   30.9738 H   0  0  0  0  0  0  0  0  0  0  0  0
   21.3275   26.0113   36.9034 H   0  0  0  0  0  0  0  0  0  0  0  0
   20.1192   23.2754   36.3980 H   0  0  0  0  0  0  0  0  0  0  0  0
   20.9758   23.2396   38.0188 H   0  0  0  0  0  0  0  0  0  0  0  0
   25.0780   23.5129   34.8209 H   0  0  0  0  0  0  0  0  0  0  0  0
   20.5346   20.5397   37.8560 H   0  0  0  0  0  0  0  0  0  0  0  0
   21.7309   19.6999   36.8214 H   0  0  0  0  0  0  0  0  0  0  0  0
   19.1350   21.0822   35.8367 H   0  0  0  0  0  0  0  0  0  0  0  0
   19.3635   19.3186   36.0794 H   0  0  0  0  0  0  0  0  0  0  0  0
   21.2123   19.3318   34.3525 H   0  0  0  0  0  0  0  0  0  0  0  0
   19.6134   19.8520   33.6985 H   0  0  0  0  0  0  0  0  0  0  0  0
   20.8743   21.0874   34.0503 H   0  0  0  0  0  0  0  0  0  0  0  0
  1  2  1  0
  2  3  2  0
  2  4  1  0
  4  5  2  0
  5  6  1  0
  6  7  2  0
  7  8  1  0
  8  9  2  0
  9 10  1  0
 10 11  2  0
 11 12  1  0
 12 13  2  0
 13 14  1  0
  1 15  1  0
 15 16  2  0
 16 17  1  0
 17 18  2  0
 18 19  1  0
 19 20  1  0
 20 21  1  0
 21 22  2  0
 21 23  1  0
 23 24  2  0
 20 25  1  0
 25 26  1  0
 26 27  1  0
 13  4  1  0
 24 15  1  0
 12  7  1  0
 23 18  1  0
  1 28  1  0
  8 29  1  0
  9 30  1  0
 10 31  1  0
 11 32  1  0
 14 33  1  0
 14 34  1  0
 17 35  1  0
 19 36  1  0
 19 37  1  0
 24 38  1  0
 25 39  1  0
 25 40  1  0
 26 41  1  0
 26 42  1  0
 27 43  1  0
 27 44  1  0
 27 45  1  0
M  END
$$$$
confid_6
     RDKit          3D

 45 48  0  0  0  0  0  0  0  0999 V2000
   25.3300   26.2600   34.7600 N   0  0  0  0  0  0  0  0  0  0  0  0
   26.1200   25.9200   33.6900 C   0  0  0  0  0  0  0  0  0  0  0  0
   25.6300   25.1100   32.9400 O   0  0  0  0  0  0  0  0  0  0  0  0
   27.5200   26.3800   33.4600 C   0  0  0  0  0  0  0  0  0  0  0  0
   28.1600   26.6300   34.6100 N   0  0  0  0  0  0  0  0  0  0  0  0
   29.4800   26.8500   34.5700 N   0  0  0  0  0  0  0  0  0  0  0  0
   30.1900   26.7800   33.4400 C   0  0  0  0  0  0  0  0  0  0  0  0
   31.5600   27.0500   33.5000 C   0  0  0  0  0  0  0  0  0  0  0  0
   32.2700   27.2400   32.3100 C   0  0  0  0  0  0  0  0  0  0  0  0
   31.6100   27.2500   31.0800 C   0  0  0  0  0  0  0  0  0  0  0  0
   30.2700   26.8700   31.0600 C   0  0  0  0  0  0  0  0  0  0  0  0
   29.5100   26.6900   32.2300 C   0  0  0  0  0  0  0  0  0  0  0  0
   28.1400   26.4100   32.2000 C   0  0  0  0  0  0  0  0  0  0  0  0
   27.4300   26.1300   31.0500 N   0  0  0  0  0  0  0  0  0  0  0  0
   23.9015   26.0780   34.8424 C   0  0  0  0  0  0  0  0  0  0  0  0
   23.1710   25.7225   33.7362 N   0  0  0  0  0  0  0  0  0  0  0  0
   21.8163   25.5608   33.7729 C   0  0  0  0  0  0  0  0  0  0  0  0
   21.1509   25.7689   34.9771 C   0  0  0  0  0  0  0  0  0  0  0  0
   19.6814   25.6666   35.2696 C   0  0  0  0  0  0  0  0  0  0  0  0
   19.6041   25.9880   36.6988 N   0  0  0  0  0  0  0  0  0  0  0  0
   20.9158   26.2837   37.1723 C   0  0  0  0  0  0  0  0  0  0  0  0
   21.1877   26.6393   38.3497 O   0  0  0  0  0  0  0  0  0  0  0  0
   21.8609   26.1333   36.0955 C   0  0  0  0  0  0  0  0  0  0  0  0
   23.2415   26.3022   36.0674 C   0  0  0  0  0  0  0  0  0  0  0  0
   18.3668   26.0952   37.4700 C   0  0  0  0  0  0  0  0  0  0  0  0
   18.2844   25.0024   38.5422 C   0  0  0  0  0  0  0  0  0  0  0  0
   18.2449   23.6018   37.9338 C   0  0  0  0  0  0  0  0  0  0  0  0
   25.7927   26.7369   35.5666 H   0  0  0  0  0  0  0  0  0  0  0  0
   32.0668   27.1429   34.4530 H   0  0  0  0  0  0  0  0  0  0  0  0
   33.3284   27.4627   32.3495 H   0  0  0  0  0  0  0  0  0  0  0  0
   32.1496   27.4414   30.1613 H   0  0  0  0  0  0  0  0  0  0  0  0
   29.7983   26.8254   30.0886 H   0  0  0  0  0  0  0  0  0  0  0  0
   27.8914   25.7241   30.2071 H   0  0  0  0  0  0  0  0  0  0  0  0
   26.4123   26.3491   30.9739 H   0  0  0  0  0  0  0  0  0  0  0  0
   21.2745   25.2792   32.8801 H   0  0  0  0  0  0  0  0  0  0  0  0
   19.1134   26.4123   34.6739 H   0  0  0  0  0  0  0  0  0  0  0  0
   19.3128   24.6359   35.0825 H   0  0  0  0  0  0  0  0  0  0  0  0
   23.7837   26.5930   36.9582 H   0  0  0  0  0  0  0  0  0  0  0  0
   17.4898   26.0147   36.7911 H   0  0  0  0  0  0  0  0  0  0  0  0
   18.3251   27.0933   37.9563 H   0  0  0  0  0  0  0  0  0  0  0  0
   19.1508   25.0801   39.2330 H   0  0  0  0  0  0  0  0  0  0  0  0
   17.3598   25.1581   39.1389 H   0  0  0  0  0  0  0  0  0  0  0  0
   17.3938   23.5109   37.2259 H   0  0  0  0  0  0  0  0  0  0  0  0
   19.1936   23.3836   37.3993 H   0  0  0  0  0  0  0  0  0  0  0  0
   18.1170   22.8507   38.7414 H   0  0  0  0  0  0  0  0  0  0  0  0
  1  2  1  0
  2  3  2  0
  2  4  1  0
  4  5  2  0
  5  6  1  0
  6  7  2  0
  7  8  1  0
  8  9  2  0
  9 10  1  0
 10 11  2  0
 11 12  1  0
 12 13  2  0
 13 14  1  0
  1 15  1  0
 15 16  2  0
 16 17  1  0
 17 18  2  0
 18 19  1  0
 19 20  1  0
 20 21  1  0
 21 22  2  0
 21 23  1  0
 23 24  2  0
 20 25  1  0
 25 26  1  0
 26 27  1  0
 13  4  1  0
 24 15  1  0
 12  7  1  0
 23 18  1  0
  1 28  1  0
  8 29  1  0
  9 30  1  0
 10 31  1  0
 11 32  1  0
 14 33  1  0
 14 34  1  0
 17 35  1  0
 19 36  1  0
 19 37  1  0
 24 38  1  0
 25 39  1  0
 25 40  1  0
 26 41  1  0
 26 42  1  0
 27 43  1  0
 27 44  1  0
 27 45  1  0
M  END
$$$$
confid_7
     RDKit          3D

 45 48  0  0  0  0  0  0  0  0999 V2000
   25.3300   26.2600   34.7600 N   0  0  0  0  0  0  0  0  0  0  0  0
   26.1200   25.9200   33.6900 C   0  0  0  0  0  0  0  0  0  0  0  0
   25.6300   25.1100   32.9400 O   0  0  0  0  0  0  0  0  0  0  0  0
   27.5200   26.3800   33.4600 C   0  0  0  0  0  0  0  0  0  0  0  0
   28.1600   26.6300   34.6100 N   0  0  0  0  0  0  0  0  0  0  0  0
   29.4800   26.8500   34.5700 N   0  0  0  0  0  0  0  0  0  0  0  0
   30.1900   26.7800   33.4400 C   0  0  0  0  0  0  0  0  0  0  0  0
   31.5600   27.0500   33.5000 C   0  0  0  0  0  0  0  0  0  0  0  0
   32.2700   27.2400   32.3100 C   0  0  0  0  0  0  0  0  0  0  0  0
   31.6100   27.2500   31.0800 C   0  0  0  0  0  0  0  0  0  0  0  0
   30.2700   26.8700   31.0600 C   0  0  0  0  0  0  0  0  0  0  0  0
   29.5100   26.6900   32.2300 C   0  0  0  0  0  0  0  0  0  0  0  0
   28.1400   26.4100   32.2000 C   0  0  0  0  0  0  0  0  0  0  0  0
   27.4300   26.1300   31.0500 N   0  0  0  0  0  0  0  0  0  0  0  0
   24.1469   25.5634   35.2037 C   0  0  0  0  0  0  0  0  0  0  0  0
   23.8217   24.3297   34.6978 N   0  0  0  0  0  0  0  0  0  0  0  0
   22.7208   23.6354   35.1085 C   0  0  0  0  0  0  0  0  0  0  0  0
   21.9012   24.1975   36.0823 C   0  0  0  0  0  0  0  0  0  0  0  0
   20.6455   23.6414   36.6902 C   0  0  0  0  0  0  0  0  0  0  0  0
   20.2536   24.6793   37.6510 N   0  0  0  0  0  0  0  0  0  0  0  0
   21.1972   25.7456   37.5809 C   0  0  0  0  0  0  0  0  0  0  0  0
   21.1358   26.8006   38.2666 O   0  0  0  0  0  0  0  0  0  0  0  0
   22.2111   25.4282   36.6082 C   0  0  0  0  0  0  0  0  0  0  0  0
   23.3306   26.1435   36.1955 C   0  0  0  0  0  0  0  0  0  0  0  0
   19.0367   24.6624   38.4616 C   0  0  0  0  0  0  0  0  0  0  0  0
   17.8034   25.0238   37.6252 C   0  0  0  0  0  0  0  0  0  0  0  0
   17.8652   26.4517   37.0865 C   0  0  0  0  0  0  0  0  0  0  0  0
   25.6226   27.1004   35.3086 H   0  0  0  0  0  0  0  0  0  0  0  0
   32.0668   27.1425   34.4530 H   0  0  0  0  0  0  0  0  0  0  0  0
   33.3288   27.4608   32.3494 H   0  0  0  0  0  0  0  0  0  0  0  0
   32.1515   27.4335   30.1608 H   0  0  0  0  0  0  0  0  0  0  0  0
   29.8039   26.7906   30.0880 H   0  0  0  0  0  0  0  0  0  0  0  0
   27.5768   26.6942   30.1848 H   0  0  0  0  0  0  0  0  0  0  0  0
   26.8612   25.2624   30.9527 H   0  0  0  0  0  0  0  0  0  0  0  0
   22.4949   22.6667   34.6835 H   0  0  0  0  0  0  0  0  0  0  0  0
   20.8519   22.6852   37.2157 H   0  0  0  0  0  0  0  0  0  0  0  0
   19.8643   23.5135   35.9117 H   0  0  0  0  0  0  0  0  0  0  0  0
   23.5598   27.1113   36.6233 H   0  0  0  0  0  0  0  0  0  0  0  0
   18.8991   23.6444   38.8850 H   0  0  0  0  0  0  0  0  0  0  0  0
   19.1353   25.3663   39.3164 H   0  0  0  0  0  0  0  0  0  0  0  0
   16.8999   24.9245   38.2647 H   0  0  0  0  0  0  0  0  0  0  0  0
   17.6979   24.3129   36.7780 H   0  0  0  0  0  0  0  0  0  0  0  0
   16.9156   26.6911   36.5632 H   0  0  0  0  0  0  0  0  0  0  0  0
   18.0040   27.1743   37.9186 H   0  0  0  0  0  0  0  0  0  0  0  0
   18.6993   26.5581   36.3615 H   0  0  0  0  0  0  0  0  0  0  0  0
  1  2  1  0
  2  3  2  0
  2  4  1  0
  4  5  2  0
  5  6  1  0
  6  7  2  0
  7  8  1  0
  8  9  2  0
  9 10  1  0
 10 11  2  0
 11 12  1  0
 12 13  2  0
 13 14  1  0
  1 15  1  0
 15 16  2  0
 16 17  1  0
 17 18  2  0
 18 19  1  0
 19 20  1  0
 20 21  1  0
 21 22  2  0
 21 23  1  0
 23 24  2  0
 20 25  1  0
 25 26  1  0
 26 27  1  0
 13  4  1  0
 24 15  1  0
 12  7  1  0
 23 18  1  0
  1 28  1  0
  8 29  1  0
  9 30  1  0
 10 31  1  0
 11 32  1  0
 14 33  1  0
 14 34  1  0
 17 35  1  0
 19 36  1  0
 19 37  1  0
 24 38  1  0
 25 39  1  0
 25 40  1  0
 26 41  1  0
 26 42  1  0
 27 43  1  0
 27 44  1  0
 27 45  1  0
M  END
$$$$
confid_8
     RDKit          3D

 45 48  0  0  0  0  0  0  0  0999 V2000
   25.3300   26.2600   34.7600 N   0  0  0  0  0  0  0  0  0  0  0  0
   26.1200   25.9200   33.6900 C   0  0  0  0  0  0  0  0  0  0  0  0
   25.6300   25.1100   32.9400 O   0  0  0  0  0  0  0  0  0  0  0  0
   27.5200   26.3800   33.4600 C   0  0  0  0  0  0  0  0  0  0  0  0
   28.1600   26.6300   34.6100 N   0  0  0  0  0  0  0  0  0  0  0  0
   29.4800   26.8500   34.5700 N   0  0  0  0  0  0  0  0  0  0  0  0
   30.1900   26.7800   33.4400 C   0  0  0  0  0  0  0  0  0  0  0  0
   31.5600   27.0500   33.5000 C   0  0  0  0  0  0  0  0  0  0  0  0
   32.2700   27.2400   32.3100 C   0  0  0  0  0  0  0  0  0  0  0  0
   31.6100   27.2500   31.0800 C   0  0  0  0  0  0  0  0  0  0  0  0
   30.2700   26.8700   31.0600 C   0  0  0  0  0  0  0  0  0  0  0  0
   29.5100   26.6900   32.2300 C   0  0  0  0  0  0  0  0  0  0  0  0
   28.1400   26.4100   32.2000 C   0  0  0  0  0  0  0  0  0  0  0  0
   27.4300   26.1300   31.0500 N   0  0  0  0  0  0  0  0  0  0  0  0
   24.2374   25.4815   35.2816 C   0  0  0  0  0  0  0  0  0  0  0  0
   23.1941   26.1294   35.8897 N   0  0  0  0  0  0  0  0  0  0  0  0
   22.1358   25.4639   36.4372 C   0  0  0  0  0  0  0  0  0  0  0  0
   22.1220   24.0735   36.3871 C   0  0  0  0  0  0  0  0  0  0  0  0
   21.0880   23.1237   36.9204 C   0  0  0  0  0  0  0  0  0  0  0  0
   21.6536   21.8070   36.6070 N   0  0  0  0  0  0  0  0  0  0  0  0
   22.8896   21.9921   35.9214 C   0  0  0  0  0  0  0  0  0  0  0  0
   23.6091   21.0574   35.4794 O   0  0  0  0  0  0  0  0  0  0  0  0
   23.1664   23.4007   35.8009 C   0  0  0  0  0  0  0  0  0  0  0  0
   24.2510   24.0688   35.2419 C   0  0  0  0  0  0  0  0  0  0  0  0
   20.9942   20.5273   36.8614 C   0  0  0  0  0  0  0  0  0  0  0  0
   21.7592   19.7063   37.9062 C   0  0  0  0  0  0  0  0  0  0  0  0
   21.8019   20.4020   39.2654 C   0  0  0  0  0  0  0  0  0  0  0  0
   25.5082   27.1874   35.2072 H   0  0  0  0  0  0  0  0  0  0  0  0
   32.0668   27.1425   34.4530 H   0  0  0  0  0  0  0  0  0  0  0  0
   33.3288   27.4608   32.3494 H   0  0  0  0  0  0  0  0  0  0  0  0
   32.1515   27.4335   30.1608 H   0  0  0  0  0  0  0  0  0  0  0  0
   29.8039   26.7906   30.0880 H   0  0  0  0  0  0  0  0  0  0  0  0
   27.5768   26.6942   30.1847 H   0  0  0  0  0  0  0  0  0  0  0  0
   26.8612   25.2624   30.9528 H   0  0  0  0  0  0  0  0  0  0  0  0
   21.3281   26.0109   36.9045 H   0  0  0  0  0  0  0  0  0  0  0  0
   20.9702   23.2444   38.0180 H   0  0  0  0  0  0  0  0  0  0  0  0
   20.1209   23.2654   36.3930 H   0  0  0  0  0  0  0  0  0  0  0  0
   25.0779   23.5128   34.8203 H   0  0  0  0  0  0  0  0  0  0  0  0
   20.9341   19.9526   35.9124 H   0  0  0  0  0  0  0  0  0  0  0  0
   19.9548   20.7012   37.2160 H   0  0  0  0  0  0  0  0  0  0  0  0
   22.7964   19.5161   37.5566 H   0  0  0  0  0  0  0  0  0  0  0  0
   21.2556   18.7228   38.0246 H   0  0  0  0  0  0  0  0  0  0  0  0
   20.7724   20.6172   39.6228 H   0  0  0  0  0  0  0  0  0  0  0  0
   22.3034   19.7416   40.0038 H   0  0  0  0  0  0  0  0  0  0  0  0
   22.3745   21.3511   39.1982 H   0  0  0  0  0  0  0  0  0  0  0  0
  1  2  1  0
  2  3  2  0
  2  4  1  0
  4  5  2  0
  5  6  1  0
  6  7  2  0
  7  8  1  0
  8  9  2  0
  9 10  1  0
 10 11  2  0
 11 12  1  0
 12 13  2  0
 13 14  1  0
  1 15  1  0
 15 16  2  0
 16 17  1  0
 17 18  2  0
 18 19  1  0
 19 20  1  0
 20 21  1  0
 21 22  2  0
 21 23  1  0
 23 24  2  0
 20 25  1  0
 25 26  1  0
 26 27  1  0
 13  4  1  0
 24 15  1  0
 12  7  1  0
 23 18  1  0
  1 28  1  0
  8 29  1  0
  9 30  1  0
 10 31  1  0
 11 32  1  0
 14 33  1  0
 14 34  1  0
 17 35  1  0
 19 36  1  0
 19 37  1  0
 24 38  1  0
 25 39  1  0
 25 40  1  0
 26 41  1  0
 26 42  1  0
 27 43  1  0
 27 44  1  0
 27 45  1  0
M  END
$$$$
confid_9
     RDKit          3D

 45 48  0  0  0  0  0  0  0  0999 V2000
   25.3300   26.2600   34.7600 N   0  0  0  0  0  0  0  0  0  0  0  0
   26.1200   25.9200   33.6900 C   0  0  0  0  0  0  0  0  0  0  0  0
   25.6300   25.1100   32.9400 O   0  0  0  0  0  0  0  0  0  0  0  0
   27.5200   26.3800   33.4600 C   0  0  0  0  0  0  0  0  0  0  0  0
   28.1600   26.6300   34.6100 N   0  0  0  0  0  0  0  0  0  0  0  0
   29.4800   26.8500   34.5700 N   0  0  0  0  0  0  0  0  0  0  0  0
   30.1900   26.7800   33.4400 C   0  0  0  0  0  0  0  0  0  0  0  0
   31.5600   27.0500   33.5000 C   0  0  0  0  0  0  0  0  0  0  0  0
   32.2700   27.2400   32.3100 C   0  0  0  0  0  0  0  0  0  0  0  0
   31.6100   27.2500   31.0800 C   0  0  0  0  0  0  0  0  0  0  0  0
   30.2700   26.8700   31.0600 C   0  0  0  0  0  0  0  0  0  0  0  0
   29.5100   26.6900   32.2300 C   0  0  0  0  0  0  0  0  0  0  0  0
   28.1400   26.4100   32.2000 C   0  0  0  0  0  0  0  0  0  0  0  0
   27.4300   26.1300   31.0500 N   0  0  0  0  0  0  0  0  0  0  0  0
   23.9015   26.0781   34.8424 C   0  0  0  0  0  0  0  0  0  0  0  0
   23.1710   25.7224   33.7362 N   0  0  0  0  0  0  0  0  0  0  0  0
   21.8163   25.5608   33.7729 C   0  0  0  0  0  0  0  0  0  0  0  0
   21.1508   25.7694   34.9769 C   0  0  0  0  0  0  0  0  0  0  0  0
   19.6812   25.6660   35.2696 C   0  0  0  0  0  0  0  0  0  0  0  0
   19.6035   25.9933   36.6972 N   0  0  0  0  0  0  0  0  0  0  0  0
   20.9155   26.2848   37.1720 C   0  0  0  0  0  0  0  0  0  0  0  0
   21.1875   26.6356   38.3508 O   0  0  0  0  0  0  0  0  0  0  0  0
   21.8608   26.1338   36.0954 C   0  0  0  0  0  0  0  0  0  0  0  0
   23.2415   26.3024   36.0673 C   0  0  0  0  0  0  0  0  0  0  0  0
   18.3687   26.0940   37.4708 C   0  0  0  0  0  0  0  0  0  0  0  0
   18.2797   24.9462   38.4797 C   0  0  0  0  0  0  0  0  0  0  0  0
   16.9817   25.0129   39.2786 C   0  0  0  0  0  0  0  0  0  0  0  0
   25.7927   26.7369   35.5666 H   0  0  0  0  0  0  0  0  0  0  0  0
   32.0668   27.1429   34.4530 H   0  0  0  0  0  0  0  0  0  0  0  0
   33.3284   27.4627   32.3495 H   0  0  0  0  0  0  0  0  0  0  0  0
   32.1496   27.4414   30.1613 H   0  0  0  0  0  0  0  0  0  0  0  0
   29.7983   26.8254   30.0886 H   0  0  0  0  0  0  0  0  0  0  0  0
   26.4123   26.3491   30.9739 H   0  0  0  0  0  0  0  0  0  0  0  0
   27.8914   25.7241   30.2071 H   0  0  0  0  0  0  0  0  0  0  0  0
   21.2746   25.2789   32.8801 H   0  0  0  0  0  0  0  0  0  0  0  0
   19.3149   24.6332   35.0891 H   0  0  0  0  0  0  0  0  0  0  0  0
   19.1115   26.4078   34.6705 H   0  0  0  0  0  0  0  0  0  0  0  0
   23.7836   26.5934   36.9581 H   0  0  0  0  0  0  0  0  0  0  0  0
   18.3428   27.0728   37.9972 H   0  0  0  0  0  0  0  0  0  0  0  0
   17.4962   26.0474   36.7827 H   0  0  0  0  0  0  0  0  0  0  0  0
   19.1382   24.9961   39.1835 H   0  0  0  0  0  0  0  0  0  0  0  0
   18.3244   23.9754   37.9399 H   0  0  0  0  0  0  0  0  0  0  0  0
   16.9250   25.9683   39.8427 H   0  0  0  0  0  0  0  0  0  0  0  0
   16.1060   24.9348   38.5996 H   0  0  0  0  0  0  0  0  0  0  0  0
   16.9466   24.1708   40.0015 H   0  0  0  0  0  0  0  0  0  0  0  0
  1  2  1  0
  2  3  2  0
  2  4  1  0
  4  5  2  0
  5  6  1  0
  6  7  2  0
  7  8  1  0
  8  9  2  0
  9 10  1  0
 10 11  2  0
 11 12  1  0
 12 13  2  0
 13 14  1  0
  1 15  1  0
 15 16  2  0
 16 17  1  0
 17 18  2  0
 18 19  1  0
 19 20  1  0
 20 21  1  0
 21 22  2  0
 21 23  1  0
 23 24  2  0
 20 25  1  0
 25 26  1  0
 26 27  1  0
 13  4  1  0
 24 15  1  0
 12  7  1  0
 23 18  1  0
  1 28  1  0
  8 29  1  0
  9 30  1  0
 10 31  1  0
 11 32  1  0
 14 33  1  0
 14 34  1  0
 17 35  1  0
 19 36  1  0
 19 37  1  0
 24 38  1  0
 25 39  1  0
 25 40  1  0
 26 41  1  0
 26 42  1  0
 27 43  1  0
 27 44  1  0
 27 45  1  0
M  END
$$$$
