confid_0
     RDKit          3D

 44 47  0  0  0  0  0  0  0  0999 V2000
   24.5500   26.3900   36.2500 N   0  0  0  0  0  0  0  0  0  0  0  0
   25.6000   26.1300   35.4000 C   0  0  0  0  0  0  0  0  0  0  0  0
   25.4300   25.4300   34.4200 O   0  0  0  0  0  0  0  0  0  0  0  0
   26.9800   26.6300   35.7100 C   0  0  0  0  0  0  0  0  0  0  0  0
   27.3200   26.8200   36.9800 N   0  0  0  0  0  0  0  0  0  0  0  0
   28.4700   27.4000   37.3100 N   0  0  0  0  0  0  0  0  0  0  0  0
   29.4000   27.6300   36.3700 C   0  0  0  0  0  0  0  0  0  0  0  0
   30.6600   28.0500   36.8000 C   0  0  0  0  0  0  0  0  0  0  0  0
   31.5700   28.3600   35.7800 C   0  0  0  0  0  0  0  0  0  0  0  0
   31.3700   28.1000   34.4300 C   0  0  0  0  0  0  0  0  0  0  0  0
   30.1200   27.5900   34.0500 C   0  0  0  0  0  0  0  0  0  0  0  0
   29.1500   27.3400   35.0300 C   0  0  0  0  0  0  0  0  0  0  0  0
   27.8800   26.8900   34.6600 C   0  0  0  0  0  0  0  0  0  0  0  0
   27.4800   26.6100   33.3700 N   0  0  0  0  0  0  0  0  0  0  0  0
   30.9688   28.3058   38.1805 N   0  0  0  0  0  0  0  0  0  0  0  0
   31.0598   29.6931   38.6478 C   0  0  0  0  0  0  0  0  0  0  0  0
   32.0537   29.8114   39.8063 C   0  0  0  0  0  0  0  0  0  0  0  0
   31.7411   28.8151   40.8955 C   0  0  0  0  0  0  0  0  0  0  0  0
   32.0291   29.1332   42.2295 C   0  0  0  0  0  0  0  0  0  0  0  0
   31.8050   28.1997   43.2392 C   0  0  0  0  0  0  0  0  0  0  0  0
   31.3035   26.9359   42.9290 C   0  0  0  0  0  0  0  0  0  0  0  0
   31.0204   26.5849   41.5941 C   0  0  0  0  0  0  0  0  0  0  0  0
   31.2516   27.5315   40.5679 C   0  0  0  0  0  0  0  0  0  0  0  0
   30.9809   27.2310   39.1395 C   0  0  0  0  0  0  0  0  0  0  0  0
   30.7950   26.0435   38.7560 O   0  0  0  0  0  0  0  0  0  0  0  0
   30.5062   25.3194   41.2645 O   0  0  0  0  0  0  0  0  0  0  0  0
   30.2275   24.2865   42.2044 C   0  0  0  0  0  0  0  0  0  0  0  0
   23.6001   26.0040   36.0503 H   0  0  0  0  0  0  0  0  0  0  0  0
   24.6740   26.9931   37.0934 H   0  0  0  0  0  0  0  0  0  0  0  0
   32.5312   28.7670   36.0683 H   0  0  0  0  0  0  0  0  0  0  0  0
   32.1342   28.3189   33.6953 H   0  0  0  0  0  0  0  0  0  0  0  0
   29.9374   27.4177   32.9983 H   0  0  0  0  0  0  0  0  0  0  0  0
   26.5962   27.0149   32.9873 H   0  0  0  0  0  0  0  0  0  0  0  0
   28.1243   26.1387   32.6978 H   0  0  0  0  0  0  0  0  0  0  0  0
   31.3899   30.3622   37.8233 H   0  0  0  0  0  0  0  0  0  0  0  0
   30.0546   30.0295   38.9832 H   0  0  0  0  0  0  0  0  0  0  0  0
   33.0818   29.6196   39.4303 H   0  0  0  0  0  0  0  0  0  0  0  0
   32.0164   30.8497   40.2025 H   0  0  0  0  0  0  0  0  0  0  0  0
   32.4316   30.1049   42.4879 H   0  0  0  0  0  0  0  0  0  0  0  0
   32.0251   28.4552   44.2678 H   0  0  0  0  0  0  0  0  0  0  0  0
   31.1400   26.2370   43.7376 H   0  0  0  0  0  0  0  0  0  0  0  0
   29.8322   23.4024   41.6638 H   0  0  0  0  0  0  0  0  0  0  0  0
   31.1573   23.9917   42.7350 H   0  0  0  0  0  0  0  0  0  0  0  0
   29.4620   24.6289   42.9324 H   0  0  0  0  0  0  0  0  0  0  0  0
  1  2  1  0
  2  3  2  0
  2  4  1  0
  4  5  2  0
  5  6  1  0
  6  7  2  0
  7  8  1  0
  8  9  2  0
  9 10  1  0
 10 11  2  0
 11 12  1  0
 12 13  2  0
 13 14  1  0
  8 15  1  0
 15 16  1  0
 16 17  1  0
 17 18  1  0
 18 19  2  0
 19 20  1  0
 20 21  2  0
 21 22  1  0
 22 23  2  0
 23 24  1  0
 24 25  2  0
 22 26  1  0
 26 27  1  0
 13  4  1  0
 24 15  1  0
 12  7  1  0
 23 18  1  0
  1 28  1  0
  1 29  1  0
  9 30  1  0
 10 31  1  0
 11 32  1  0
 14 33  1  0
 14 34  1  0
 16 35  1  0
 16 36  1  0
 17 37  1  0
 17 38  1  0
 19 39  1  0
 20 40  1  0
 21 41  1  0
 27 42  1  0
 27 43  1  0
 27 44  1  0
M  END
$$$$
confid_1
     RDKit          3D

 44 47  0  0  0  0  0  0  0  0999 V2000
   24.5500   26.3900   36.2500 N   0  0  0  0  0  0  0  0  0  0  0  0
   25.6000   26.1300   35.4000 C   0  0  0  0  0  0  0  0  0  0  0  0
   25.4300   25.4300   34.4200 O   0  0  0  0  0  0  0  0  0  0  0  0
   26.9800   26.6300   35.7100 C   0  0  0  0  0  0  0  0  0  0  0  0
   27.3200   26.8200   36.9800 N   0  0  0  0  0  0  0  0  0  0  0  0
   28.4700   27.4000   37.3100 N   0  0  0  0  0  0  0  0  0  0  0  0
   29.4000   27.6300   36.3700 C   0  0  0  0  0  0  0  0  0  0  0  0
   30.6600   28.0500   36.8000 C   0  0  0  0  0  0  0  0  0  0  0  0
   31.5700   28.3600   35.7800 C   0  0  0  0  0  0  0  0  0  0  0  0
   31.3700   28.1000   34.4300 C   0  0  0  0  0  0  0  0  0  0  0  0
   30.1200   27.5900   34.0500 C   0  0  0  0  0  0  0  0  0  0  0  0
   29.1500   27.3400   35.0300 C   0  0  0  0  0  0  0  0  0  0  0  0
   27.8800   26.8900   34.6600 C   0  0  0  0  0  0  0  0  0  0  0  0
   27.4800   26.6100   33.3700 N   0  0  0  0  0  0  0  0  0  0  0  0
   30.9677   28.2905   38.1866 N   0  0  0  0  0  0  0  0  0  0  0  0
   31.5200   29.5848   38.5983 C   0  0  0  0  0  0  0  0  0  0  0  0
   31.0006   29.9696   39.9853 C   0  0  0  0  0  0  0  0  0  0  0  0
   31.2277   28.8604   40.9834 C   0  0  0  0  0  0  0  0  0  0  0  0
   31.4164   29.1793   42.3349 C   0  0  0  0  0  0  0  0  0  0  0  0
   31.5665   28.1694   43.2822 C   0  0  0  0  0  0  0  0  0  0  0  0
   31.5168   26.8309   42.8956 C   0  0  0  0  0  0  0  0  0  0  0  0
   31.3113   26.4811   41.5463 C   0  0  0  0  0  0  0  0  0  0  0  0
   31.1574   27.5067   40.5820 C   0  0  0  0  0  0  0  0  0  0  0  0
   30.9367   27.2127   39.1418 C   0  0  0  0  0  0  0  0  0  0  0  0
   30.7256   26.0323   38.7498 O   0  0  0  0  0  0  0  0  0  0  0  0
   31.2614   25.1363   41.1415 O   0  0  0  0  0  0  0  0  0  0  0  0
   31.4023   24.0195   42.0138 C   0  0  0  0  0  0  0  0  0  0  0  0
   23.6001   26.0040   36.0503 H   0  0  0  0  0  0  0  0  0  0  0  0
   24.6740   26.9931   37.0934 H   0  0  0  0  0  0  0  0  0  0  0  0
   32.5343   28.7617   36.0644 H   0  0  0  0  0  0  0  0  0  0  0  0
   32.1346   28.3176   33.6954 H   0  0  0  0  0  0  0  0  0  0  0  0
   29.9375   27.4174   32.9983 H   0  0  0  0  0  0  0  0  0  0  0  0
   28.1242   26.1386   32.6978 H   0  0  0  0  0  0  0  0  0  0  0  0
   26.5962   27.0149   32.9873 H   0  0  0  0  0  0  0  0  0  0  0  0
   31.2276   30.3786   37.8761 H   0  0  0  0  0  0  0  0  0  0  0  0
   32.6298   29.5207   38.6177 H   0  0  0  0  0  0  0  0  0  0  0  0
   31.5148   30.9000   40.3117 H   0  0  0  0  0  0  0  0  0  0  0  0
   29.9106   30.1777   39.9251 H   0  0  0  0  0  0  0  0  0  0  0  0
   31.4439   30.2132   42.6564 H   0  0  0  0  0  0  0  0  0  0  0  0
   31.7175   28.4251   44.3232 H   0  0  0  0  0  0  0  0  0  0  0  0
   31.6374   26.0733   43.6575 H   0  0  0  0  0  0  0  0  0  0  0  0
   31.3196   23.0852   41.4216 H   0  0  0  0  0  0  0  0  0  0  0  0
   30.5968   24.0277   42.7781 H   0  0  0  0  0  0  0  0  0  0  0  0
   32.3980   24.0415   42.5048 H   0  0  0  0  0  0  0  0  0  0  0  0
  1  2  1  0
  2  3  2  0
  2  4  1  0
  4  5  2  0
  5  6  1  0
  6  7  2  0
  7  8  1  0
  8  9  2  0
  9 10  1  0
 10 11  2  0
 11 12  1  0
 12 13  2  0
 13 14  1  0
  8 15  1  0
 15 16  1  0
 16 17  1  0
 17 18  1  0
 18 19  2  0
 19 20  1  0
 20 21  2  0
 21 22  1  0
 22 23  2  0
 23 24  1  0
 24 25  2  0
 22 26  1  0
 26 27  1  0
 13  4  1  0
 24 15  1  0
 12  7  1  0
 23 18  1  0
  1 28  1  0
  1 29  1  0
  9 30  1  0
 10 31  1  0
 11 32  1  0
 14 33  1  0
 14 34  1  0
 16 35  1  0
 16 36  1  0
 17 37  1  0
 17 38  1  0
 19 39  1  0
 20 40  1  0
 21 41  1  0
 27 42  1  0
 27 43  1  0
 27 44  1  0
M  END
$$$$
confid_2
     RDKit          3D

 44 47  0  0  0  0  0  0  0  0999 V2000
   24.5500   26.3900   36.2500 N   0  0  0  0  0  0  0  0  0  0  0  0
   25.6000   26.1300   35.4000 C   0  0  0  0  0  0  0  0  0  0  0  0
   25.4300   25.4300   34.4200 O   0  0  0  0  0  0  0  0  0  0  0  0
   26.9800   26.6300   35.7100 C   0  0  0  0  0  0  0  0  0  0  0  0
   27.3200   26.8200   36.9800 N   0  0  0  0  0  0  0  0  0  0  0  0
   28.4700   27.4000   37.3100 N   0  0  0  0  0  0  0  0  0  0  0  0
   29.4000   27.6300   36.3700 C   0  0  0  0  0  0  0  0  0  0  0  0
   30.6600   28.0500   36.8000 C   0  0  0  0  0  0  0  0  0  0  0  0
   31.5700   28.3600   35.7800 C   0  0  0  0  0  0  0  0  0  0  0  0
   31.3700   28.1000   34.4300 C   0  0  0  0  0  0  0  0  0  0  0  0
   30.1200   27.5900   34.0500 C   0  0  0  0  0  0  0  0  0  0  0  0
   29.1500   27.3400   35.0300 C   0  0  0  0  0  0  0  0  0  0  0  0
   27.8800   26.8900   34.6600 C   0  0  0  0  0  0  0  0  0  0  0  0
   27.4800   26.6100   33.3700 N   0  0  0  0  0  0  0  0  0  0  0  0
   30.9601   28.3200   38.1797 N   0  0  0  0  0  0  0  0  0  0  0  0
   30.3645   29.4920   38.8297 C   0  0  0  0  0  0  0  0  0  0  0  0
   30.1671   29.2334   40.3250 C   0  0  0  0  0  0  0  0  0  0  0  0
   31.4484   28.7632   40.9695 C   0  0  0  0  0  0  0  0  0  0  0  0
   31.6982   29.0692   42.3139 C   0  0  0  0  0  0  0  0  0  0  0  0
   32.8468   28.5934   42.9422 C   0  0  0  0  0  0  0  0  0  0  0  0
   33.7524   27.7977   42.2414 C   0  0  0  0  0  0  0  0  0  0  0  0
   33.5179   27.4612   40.8935 C   0  0  0  0  0  0  0  0  0  0  0  0
   32.3493   27.9415   40.2551 C   0  0  0  0  0  0  0  0  0  0  0  0
   32.0336   27.6228   38.8387 C   0  0  0  0  0  0  0  0  0  0  0  0
   32.6749   26.7287   38.2214 O   0  0  0  0  0  0  0  0  0  0  0  0
   34.4238   26.6657   40.1715 O   0  0  0  0  0  0  0  0  0  0  0  0
   35.6312   26.1266   40.7000 C   0  0  0  0  0  0  0  0  0  0  0  0
   24.6739   26.9932   37.0933 H   0  0  0  0  0  0  0  0  0  0  0  0
   23.6001   26.0040   36.0503 H   0  0  0  0  0  0  0  0  0  0  0  0
   32.5272   28.7770   36.0671 H   0  0  0  0  0  0  0  0  0  0  0  0
   32.1333   28.3212   33.6950 H   0  0  0  0  0  0  0  0  0  0  0  0
   29.9372   27.4182   32.9982 H   0  0  0  0  0  0  0  0  0  0  0  0
   26.5962   27.0149   32.9873 H   0  0  0  0  0  0  0  0  0  0  0  0
   28.1243   26.1388   32.6978 H   0  0  0  0  0  0  0  0  0  0  0  0
   31.0362   30.3665   38.6880 H   0  0  0  0  0  0  0  0  0  0  0  0
   29.3811   29.7385   38.3737 H   0  0  0  0  0  0  0  0  0  0  0  0
   29.8093   30.1709   40.8040 H   0  0  0  0  0  0  0  0  0  0  0  0
   29.3887   28.4525   40.4640 H   0  0  0  0  0  0  0  0  0  0  0  0
   30.9998   29.6752   42.8781 H   0  0  0  0  0  0  0  0  0  0  0  0
   33.0348   28.8392   43.9795 H   0  0  0  0  0  0  0  0  0  0  0  0
   34.6340   27.4472   42.7600 H   0  0  0  0  0  0  0  0  0  0  0  0
   35.4070   25.4504   41.5518 H   0  0  0  0  0  0  0  0  0  0  0  0
   36.1434   25.5421   39.9086 H   0  0  0  0  0  0  0  0  0  0  0  0
   36.3046   26.9466   41.0275 H   0  0  0  0  0  0  0  0  0  0  0  0
  1  2  1  0
  2  3  2  0
  2  4  1  0
  4  5  2  0
  5  6  1  0
  6  7  2  0
  7  8  1  0
  8  9  2  0
  9 10  1  0
 10 11  2  0
 11 12  1  0
 12 13  2  0
 13 14  1  0
  8 15  1  0
 15 16  1  0
 16 17  1  0
 17 18  1  0
 18 19  2  0
 19 20  1  0
 20 21  2  0
 21 22  1  0
 22 23  2  0
 23 24  1  0
 24 25  2  0
 22 26  1  0
 26 27  1  0
 13  4  1  0
 24 15  1  0
 12  7  1  0
 23 18  1  0
  1 28  1  0
  1 29  1  0
  9 30  1  0
 10 31  1  0
 11 32  1  0
 14 33  1  0
 14 34  1  0
 16 35  1  0
 16 36  1  0
 17 37  1  0
 17 38  1  0
 19 39  1  0
 20 40  1  0
 21 41  1  0
 27 42  1  0
 27 43  1  0
 27 44  1  0
M  END
$$$$
confid_3
     RDKit          3D

 44 47  0  0  0  0  0  0  0  0999 V2000
   24.5500   26.3900   36.2500 N   0  0  0  0  0  0  0  0  0  0  0  0
   25.6000   26.1300   35.4000 C   0  0  0  0  0  0  0  0  0  0  0  0
   25.4300   25.4300   34.4200 O   0  0  0  0  0  0  0  0  0  0  0  0
   26.9800   26.6300   35.7100 C   0  0  0  0  0  0  0  0  0  0  0  0
   27.3200   26.8200   36.9800 N   0  0  0  0  0  0  0  0  0  0  0  0
   28.4700   27.4000   37.3100 N   0  0  0  0  0  0  0  0  0  0  0  0
   29.4000   27.6300   36.3700 C   0  0  0  0  0  0  0  0  0  0  0  0
   30.6600   28.0500   36.8000 C   0  0  0  0  0  0  0  0  0  0  0  0
   31.5700   28.3600   35.7800 C   0  0  0  0  0  0  0  0  0  0  0  0
   31.3700   28.1000   34.4300 C   0  0  0  0  0  0  0  0  0  0  0  0
   30.1200   27.5900   34.0500 C   0  0  0  0  0  0  0  0  0  0  0  0
   29.1500   27.3400   35.0300 C   0  0  0  0  0  0  0  0  0  0  0  0
   27.8800   26.8900   34.6600 C   0  0  0  0  0  0  0  0  0  0  0  0
   27.4800   26.6100   33.3700 N   0  0  0  0  0  0  0  0  0  0  0  0
   30.9822   28.2786   38.1857 N   0  0  0  0  0  0  0  0  0  0  0  0
   30.8313   27.1970   39.1649 C   0  0  0  0  0  0  0  0  0  0  0  0
   31.9956   27.2098   40.1578 C   0  0  0  0  0  0  0  0  0  0  0  0
   32.1677   28.5750   40.7784 C   0  0  0  0  0  0  0  0  0  0  0  0
   32.6783   28.6817   42.0790 C   0  0  0  0  0  0  0  0  0  0  0  0
   32.9003   29.9338   42.6474 C   0  0  0  0  0  0  0  0  0  0  0  0
   32.6283   31.0928   41.9216 C   0  0  0  0  0  0  0  0  0  0  0  0
   32.1300   31.0150   40.6060 C   0  0  0  0  0  0  0  0  0  0  0  0
   31.9058   29.7428   40.0263 C   0  0  0  0  0  0  0  0  0  0  0  0
   31.3860   29.5833   38.6431 C   0  0  0  0  0  0  0  0  0  0  0  0
   31.2984   30.5754   37.8688 O   0  0  0  0  0  0  0  0  0  0  0  0
   31.8472   32.1740   39.8635 O   0  0  0  0  0  0  0  0  0  0  0  0
   32.0286   33.5053   40.3353 C   0  0  0  0  0  0  0  0  0  0  0  0
   24.6739   26.9932   37.0934 H   0  0  0  0  0  0  0  0  0  0  0  0
   23.6001   26.0040   36.0503 H   0  0  0  0  0  0  0  0  0  0  0  0
   32.5353   28.7584   36.0665 H   0  0  0  0  0  0  0  0  0  0  0  0
   32.1349   28.3169   33.6955 H   0  0  0  0  0  0  0  0  0  0  0  0
   29.9375   27.4172   32.9983 H   0  0  0  0  0  0  0  0  0  0  0  0
   26.5962   27.0149   32.9873 H   0  0  0  0  0  0  0  0  0  0  0  0
   28.1242   26.1386   32.6978 H   0  0  0  0  0  0  0  0  0  0  0  0
   29.8742   27.3303   39.7147 H   0  0  0  0  0  0  0  0  0  0  0  0
   30.8069   26.2093   38.6537 H   0  0  0  0  0  0  0  0  0  0  0  0
   31.8028   26.4453   40.9419 H   0  0  0  0  0  0  0  0  0  0  0  0
   32.9339   26.9365   39.6287 H   0  0  0  0  0  0  0  0  0  0  0  0
   32.9081   27.7926   42.6533 H   0  0  0  0  0  0  0  0  0  0  0  0
   33.2897   30.0070   43.6548 H   0  0  0  0  0  0  0  0  0  0  0  0
   32.8117   32.0477   42.3945 H   0  0  0  0  0  0  0  0  0  0  0  0
   33.0972   33.6815   40.5804 H   0  0  0  0  0  0  0  0  0  0  0  0
   31.7257   34.2158   39.5392 H   0  0  0  0  0  0  0  0  0  0  0  0
   31.3950   33.6834   41.2297 H   0  0  0  0  0  0  0  0  0  0  0  0
  1  2  1  0
  2  3  2  0
  2  4  1  0
  4  5  2  0
  5  6  1  0
  6  7  2  0
  7  8  1  0
  8  9  2  0
  9 10  1  0
 10 11  2  0
 11 12  1  0
 12 13  2  0
 13 14  1  0
  8 15  1  0
 15 16  1  0
 16 17  1  0
 17 18  1  0
 18 19  2  0
 19 20  1  0
 20 21  2  0
 21 22  1  0
 22 23  2  0
 23 24  1  0
 24 25  2  0
 22 26  1  0
 26 27  1  0
 13  4  1  0
 24 15  1  0
 12  7  1  0
 23 18  1  0
  1 28  1  0
  1 29  1  0
  9 30  1  0
 10 31  1  0
 11 32  1  0
 14 33  1  0
 14 34  1  0
 16 35  1  0
 16 36  1  0
 17 37  1  0
 17 38  1  0
 19 39  1  0
 20 40  1  0
 21 41  1  0
 27 42  1  0
 27 43  1  0
 27 44  1  0
M  END
$$$$
confid_4
     RDKit          3D

 44 47  0  0  0  0  0  0  0  0999 V2000
   24.5500   26.3900   36.2500 N   0  0  0  0  0  0  0  0  0  0  0  0
   25.6000   26.1300   35.4000 C   0  0  0  0  0  0  0  0  0  0  0  0
   25.4300   25.4300   34.4200 O   0  0  0  0  0  0  0  0  0  0  0  0
   26.9800   26.6300   35.7100 C   0  0  0  0  0  0  0  0  0  0  0  0
   27.3200   26.8200   36.9800 N   0  0  0  0  0  0  0  0  0  0  0  0
   28.4700   27.4000   37.3100 N   0  0  0  0  0  0  0  0  0  0  0  0
   29.4000   27.6300   36.3700 C   0  0  0  0  0  0  0  0  0  0  0  0
   30.6600   28.0500   36.8000 C   0  0  0  0  0  0  0  0  0  0  0  0
   31.5700   28.3600   35.7800 C   0  0  0  0  0  0  0  0  0  0  0  0
   31.3700   28.1000   34.4300 C   0  0  0  0  0  0  0  0  0  0  0  0
   30.1200   27.5900   34.0500 C   0  0  0  0  0  0  0  0  0  0  0  0
   29.1500   27.3400   35.0300 C   0  0  0  0  0  0  0  0  0  0  0  0
   27.8800   26.8900   34.6600 C   0  0  0  0  0  0  0  0  0  0  0  0
   27.4800   26.6100   33.3700 N   0  0  0  0  0  0  0  0  0  0  0  0
   30.9786   28.3171   38.1797 N   0  0  0  0  0  0  0  0  0  0  0  0
   30.1391   29.2173   38.9790 C   0  0  0  0  0  0  0  0  0  0  0  0
   31.0069   30.1080   39.8710 C   0  0  0  0  0  0  0  0  0  0  0  0
   31.9703   29.2844   40.6904 C   0  0  0  0  0  0  0  0  0  0  0  0
   32.3702   29.7425   41.9528 C   0  0  0  0  0  0  0  0  0  0  0  0
   33.3048   29.0267   42.6975 C   0  0  0  0  0  0  0  0  0  0  0  0
   33.8602   27.8540   42.1870 C   0  0  0  0  0  0  0  0  0  0  0  0
   33.4884   27.3794   40.9136 C   0  0  0  0  0  0  0  0  0  0  0  0
   32.5402   28.1072   40.1550 C   0  0  0  0  0  0  0  0  0  0  0  0
   32.1038   27.6704   38.8036 C   0  0  0  0  0  0  0  0  0  0  0  0
   32.7126   26.7469   38.1968 O   0  0  0  0  0  0  0  0  0  0  0  0
   34.0352   26.1967   40.3874 O   0  0  0  0  0  0  0  0  0  0  0  0
   34.9926   25.3786   41.0523 C   0  0  0  0  0  0  0  0  0  0  0  0
   23.6001   26.0039   36.0504 H   0  0  0  0  0  0  0  0  0  0  0  0
   24.6739   26.9932   37.0934 H   0  0  0  0  0  0  0  0  0  0  0  0
   32.5282   28.7757   36.0660 H   0  0  0  0  0  0  0  0  0  0  0  0
   32.1352   28.3157   33.6955 H   0  0  0  0  0  0  0  0  0  0  0  0
   29.9364   27.3925   33.0016 H   0  0  0  0  0  0  0  0  0  0  0  0
   27.5826   27.3394   32.6301 H   0  0  0  0  0  0  0  0  0  0  0  0
   27.4182   25.6173   33.0515 H   0  0  0  0  0  0  0  0  0  0  0  0
   29.5242   29.8665   38.3174 H   0  0  0  0  0  0  0  0  0  0  0  0
   29.4542   28.6134   39.6132 H   0  0  0  0  0  0  0  0  0  0  0  0
   30.3417   30.7049   40.5325 H   0  0  0  0  0  0  0  0  0  0  0  0
   31.5878   30.8111   39.2360 H   0  0  0  0  0  0  0  0  0  0  0  0
   31.9598   30.6584   42.3600 H   0  0  0  0  0  0  0  0  0  0  0  0
   33.6041   29.3848   43.6742 H   0  0  0  0  0  0  0  0  0  0  0  0
   34.5819   27.3235   42.7927 H   0  0  0  0  0  0  0  0  0  0  0  0
   35.2438   24.5151   40.4031 H   0  0  0  0  0  0  0  0  0  0  0  0
   34.5713   24.9952   42.0055 H   0  0  0  0  0  0  0  0  0  0  0  0
   35.9199   25.9575   41.2476 H   0  0  0  0  0  0  0  0  0  0  0  0
  1  2  1  0
  2  3  2  0
  2  4  1  0
  4  5  2  0
  5  6  1  0
  6  7  2  0
  7  8  1  0
  8  9  2  0
  9 10  1  0
 10 11  2  0
 11 12  1  0
 12 13  2  0
 13 14  1  0
  8 15  1  0
 15 16  1  0
 16 17  1  0
 17 18  1  0
 18 19  2  0
 19 20  1  0
 20 21  2  0
 21 22  1  0
 22 23  2  0
 23 24  1  0
 24 25  2  0
 22 26  1  0
 26 27  1  0
 13  4  1  0
 24 15  1  0
 12  7  1  0
 23 18  1  0
  1 28  1  0
  1 29  1  0
  9 30  1  0
 10 31  1  0
 11 32  1  0
 14 33  1  0
 14 34  1  0
 16 35  1  0
 16 36  1  0
 17 37  1  0
 17 38  1  0
 19 39  1  0
 20 40  1  0
 21 41  1  0
 27 42  1  0
 27 43  1  0
 27 44  1  0
M  END
$$$$
confid_5
     RDKit          3D

 44 47  0  0  0  0  0  0  0  0999 V2000
   24.5500   26.3900   36.2500 N   0  0  0  0  0  0  0  0  0  0  0  0
   25.6000   26.1300   35.4000 C   0  0  0  0  0  0  0  0  0  0  0  0
   25.4300   25.4300   34.4200 O   0  0  0  0  0  0  0  0  0  0  0  0
   26.9800   26.6300   35.7100 C   0  0  0  0  0  0  0  0  0  0  0  0
   27.3200   26.8200   36.9800 N   0  0  0  0  0  0  0  0  0  0  0  0
   28.4700   27.4000   37.3100 N   0  0  0  0  0  0  0  0  0  0  0  0
   29.4000   27.6300   36.3700 C   0  0  0  0  0  0  0  0  0  0  0  0
   30.6600   28.0500   36.8000 C   0  0  0  0  0  0  0  0  0  0  0  0
   31.5700   28.3600   35.7800 C   0  0  0  0  0  0  0  0  0  0  0  0
   31.3700   28.1000   34.4300 C   0  0  0  0  0  0  0  0  0  0  0  0
   30.1200   27.5900   34.0500 C   0  0  0  0  0  0  0  0  0  0  0  0
   29.1500   27.3400   35.0300 C   0  0  0  0  0  0  0  0  0  0  0  0
   27.8800   26.8900   34.6600 C   0  0  0  0  0  0  0  0  0  0  0  0
   27.4800   26.6100   33.3700 N   0  0  0  0  0  0  0  0  0  0  0  0
   30.9736   28.3088   38.1782 N   0  0  0  0  0  0  0  0  0  0  0  0
   31.8582   27.3804   38.8886 C   0  0  0  0  0  0  0  0  0  0  0  0
   32.6616   28.1124   39.9671 C   0  0  0  0  0  0  0  0  0  0  0  0
   31.7572   28.9156   40.8692 C   0  0  0  0  0  0  0  0  0  0  0  0
   32.1064   29.1026   42.2133 C   0  0  0  0  0  0  0  0  0  0  0  0
   31.3150   29.8954   43.0418 C   0  0  0  0  0  0  0  0  0  0  0  0
   30.1747   30.5197   42.5368 C   0  0  0  0  0  0  0  0  0  0  0  0
   29.8098   30.3609   41.1852 C   0  0  0  0  0  0  0  0  0  0  0  0
   30.6155   29.5589   40.3427 C   0  0  0  0  0  0  0  0  0  0  0  0
   30.2957   29.3491   38.9086 C   0  0  0  0  0  0  0  0  0  0  0  0
   29.4645   30.0932   38.3195 O   0  0  0  0  0  0  0  0  0  0  0  0
   28.6593   30.9747   40.6616 O   0  0  0  0  0  0  0  0  0  0  0  0
   27.7684   31.7986   41.4069 C   0  0  0  0  0  0  0  0  0  0  0  0
   23.6001   26.0040   36.0503 H   0  0  0  0  0  0  0  0  0  0  0  0
   24.6739   26.9933   37.0933 H   0  0  0  0  0  0  0  0  0  0  0  0
   32.5290   28.7718   36.0689 H   0  0  0  0  0  0  0  0  0  0  0  0
   32.1337   28.3200   33.6952 H   0  0  0  0  0  0  0  0  0  0  0  0
   29.9373   27.4179   32.9983 H   0  0  0  0  0  0  0  0  0  0  0  0
   26.5962   27.0149   32.9873 H   0  0  0  0  0  0  0  0  0  0  0  0
   28.1243   26.1387   32.6978 H   0  0  0  0  0  0  0  0  0  0  0  0
   31.2439   26.5819   39.3586 H   0  0  0  0  0  0  0  0  0  0  0  0
   32.5668   26.8994   38.1788 H   0  0  0  0  0  0  0  0  0  0  0  0
   33.2351   27.3623   40.5543 H   0  0  0  0  0  0  0  0  0  0  0  0
   33.3861   28.8016   39.4820 H   0  0  0  0  0  0  0  0  0  0  0  0
   32.9958   28.6368   42.6196 H   0  0  0  0  0  0  0  0  0  0  0  0
   31.5888   30.0305   44.0803 H   0  0  0  0  0  0  0  0  0  0  0  0
   29.5828   31.1262   43.2082 H   0  0  0  0  0  0  0  0  0  0  0  0
   26.9524   32.1448   40.7401 H   0  0  0  0  0  0  0  0  0  0  0  0
   28.3072   32.6868   41.7991 H   0  0  0  0  0  0  0  0  0  0  0  0
   27.3221   31.2199   42.2430 H   0  0  0  0  0  0  0  0  0  0  0  0
  1  2  1  0
  2  3  2  0
  2  4  1  0
  4  5  2  0
  5  6  1  0
  6  7  2  0
  7  8  1  0
  8  9  2  0
  9 10  1  0
 10 11  2  0
 11 12  1  0
 12 13  2  0
 13 14  1  0
  8 15  1  0
 15 16  1  0
 16 17  1  0
 17 18  1  0
 18 19  2  0
 19 20  1  0
 20 21  2  0
 21 22  1  0
 22 23  2  0
 23 24  1  0
 24 25  2  0
 22 26  1  0
 26 27  1  0
 13  4  1  0
 24 15  1  0
 12  7  1  0
 23 18  1  0
  1 28  1  0
  1 29  1  0
  9 30  1  0
 10 31  1  0
 11 32  1  0
 14 33  1  0
 14 34  1  0
 16 35  1  0
 16 36  1  0
 17 37  1  0
 17 38  1  0
 19 39  1  0
 20 40  1  0
 21 41  1  0
 27 42  1  0
 27 43  1  0
 27 44  1  0
M  END
$$$$
confid_6
     RDKit          3D

 44 47  0  0  0  0  0  0  0  0999 V2000
   24.5500   26.3900   36.2500 N   0  0  0  0  0  0  0  0  0  0  0  0
   25.6000   26.1300   35.4000 C   0  0  0  0  0  0  0  0  0  0  0  0
   25.4300   25.4300   34.4200 O   0  0  0  0  0  0  0  0  0  0  0  0
   26.9800   26.6300   35.7100 C   0  0  0  0  0  0  0  0  0  0  0  0
   27.3200   26.8200   36.9800 N   0  0  0  0  0  0  0  0  0  0  0  0
   28.4700   27.4000   37.3100 N   0  0  0  0  0  0  0  0  0  0  0  0
   29.4000   27.6300   36.3700 C   0  0  0  0  0  0  0  0  0  0  0  0
   30.6600   28.0500   36.8000 C   0  0  0  0  0  0  0  0  0  0  0  0
   31.5700   28.3600   35.7800 C   0  0  0  0  0  0  0  0  0  0  0  0
   31.3700   28.1000   34.4300 C   0  0  0  0  0  0  0  0  0  0  0  0
   30.1200   27.5900   34.0500 C   0  0  0  0  0  0  0  0  0  0  0  0
   29.1500   27.3400   35.0300 C   0  0  0  0  0  0  0  0  0  0  0  0
   27.8800   26.8900   34.6600 C   0  0  0  0  0  0  0  0  0  0  0  0
   27.4800   26.6100   33.3700 N   0  0  0  0  0  0  0  0  0  0  0  0
   30.9713   28.3029   38.1826 N   0  0  0  0  0  0  0  0  0  0  0  0
   32.1742   27.7063   38.7692 C   0  0  0  0  0  0  0  0  0  0  0  0
   31.9325   27.3573   40.2393 C   0  0  0  0  0  0  0  0  0  0  0  0
   31.3992   28.5439   41.0051 C   0  0  0  0  0  0  0  0  0  0  0  0
   31.6785   28.6605   42.3733 C   0  0  0  0  0  0  0  0  0  0  0  0
   31.1471   29.7141   43.1131 C   0  0  0  0  0  0  0  0  0  0  0  0
   30.3208   30.6554   42.5011 C   0  0  0  0  0  0  0  0  0  0  0  0
   30.0092   30.5534   41.1308 C   0  0  0  0  0  0  0  0  0  0  0  0
   30.5479   29.4822   40.3772 C   0  0  0  0  0  0  0  0  0  0  0  0
   30.2624   29.3110   38.9285 C   0  0  0  0  0  0  0  0  0  0  0  0
   29.4123   30.0405   38.3481 O   0  0  0  0  0  0  0  0  0  0  0  0
   29.1792   31.4958   40.5002 O   0  0  0  0  0  0  0  0  0  0  0  0
   28.5796   32.6131   41.1484 C   0  0  0  0  0  0  0  0  0  0  0  0
   24.6739   26.9932   37.0933 H   0  0  0  0  0  0  0  0  0  0  0  0
   23.6001   26.0039   36.0504 H   0  0  0  0  0  0  0  0  0  0  0  0
   32.5290   28.7737   36.0655 H   0  0  0  0  0  0  0  0  0  0  0  0
   32.1354   28.3153   33.6955 H   0  0  0  0  0  0  0  0  0  0  0  0
   29.9365   27.3924   33.0016 H   0  0  0  0  0  0  0  0  0  0  0  0
   27.5826   27.3394   32.6301 H   0  0  0  0  0  0  0  0  0  0  0  0
   27.4182   25.6173   33.0515 H   0  0  0  0  0  0  0  0  0  0  0  0
   33.0179   28.4259   38.6881 H   0  0  0  0  0  0  0  0  0  0  0  0
   32.4524   26.7783   38.2224 H   0  0  0  0  0  0  0  0  0  0  0  0
   31.1935   26.5296   40.3040 H   0  0  0  0  0  0  0  0  0  0  0  0
   32.8893   27.0046   40.6826 H   0  0  0  0  0  0  0  0  0  0  0  0
   32.3071   27.9312   42.8694 H   0  0  0  0  0  0  0  0  0  0  0  0
   31.3729   29.7994   44.1684 H   0  0  0  0  0  0  0  0  0  0  0  0
   29.9262   31.4600   43.1059 H   0  0  0  0  0  0  0  0  0  0  0  0
   29.3643   33.2834   41.5583 H   0  0  0  0  0  0  0  0  0  0  0  0
   27.9791   33.1811   40.4087 H   0  0  0  0  0  0  0  0  0  0  0  0
   27.9067   32.2673   41.9613 H   0  0  0  0  0  0  0  0  0  0  0  0
  1  2  1  0
  2  3  2  0
  2  4  1  0
  4  5  2  0
  5  6  1  0
  6  7  2  0
  7  8  1  0
  8  9  2  0
  9 10  1  0
 10 11  2  0
 11 12  1  0
 12 13  2  0
 13 14  1  0
  8 15  1  0
 15 16  1  0
 16 17  1  0
 17 18  1  0
 18 19  2  0
 19 20  1  0
 20 21  2  0
 21 22  1  0
 22 23  2  0
 23 24  1  0
 24 25  2  0
 22 26  1  0
 26 27  1  0
 13  4  1  0
 24 15  1  0
 12  7  1  0
 23 18  1  0
  1 28  1  0
  1 29  1  0
  9 30  1  0
 10 31  1  0
 11 32  1  0
 14 33  1  0
 14 34  1  0
 16 35  1  0
 16 36  1  0
 17 37  1  0
 17 38  1  0
 19 39  1  0
 20 40  1  0
 21 41  1  0
 27 42  1  0
 27 43  1  0
 27 44  1  0
M  END
$$$$
confid_7
     RDKit          3D

 44 47  0  0  0  0  0  0  0  0999 V2000
   24.5500   26.3900   36.2500 N   0  0  0  0  0  0  0  0  0  0  0  0
   25.6000   26.1300   35.4000 C   0  0  0  0  0  0  0  0  0  0  0  0
   25.4300   25.4300   34.4200 O   0  0  0  0  0  0  0  0  0  0  0  0
   26.9800   26.6300   35.7100 C   0  0  0  0  0  0  0  0  0  0  0  0
   27.3200   26.8200   36.9800 N   0  0  0  0  0  0  0  0  0  0  0  0
   28.4700   27.4000   37.3100 N   0  0  0  0  0  0  0  0  0  0  0  0
   29.4000   27.6300   36.3700 C   0  0  0  0  0  0  0  0  0  0  0  0
   30.6600   28.0500   36.8000 C   0  0  0  0  0  0  0  0  0  0  0  0
   31.5700   28.3600   35.7800 C   0  0  0  0  0  0  0  0  0  0  0  0
   31.3700   28.1000   34.4300 C   0  0  0  0  0  0  0  0  0  0  0  0
   30.1200   27.5900   34.0500 C   0  0  0  0  0  0  0  0  0  0  0  0
   29.1500   27.3400   35.0300 C   0  0  0  0  0  0  0  0  0  0  0  0
   27.8800   26.8900   34.6600 C   0  0  0  0  0  0  0  0  0  0  0  0
   27.4800   26.6100   33.3700 N   0  0  0  0  0  0  0  0  0  0  0  0
   30.9653   28.2834   38.1856 N   0  0  0  0  0  0  0  0  0  0  0  0
   31.1540   27.1340   39.0766 C   0  0  0  0  0  0  0  0  0  0  0  0
   30.7167   27.4797   40.5019 C   0  0  0  0  0  0  0  0  0  0  0  0
   31.3869   28.7427   40.9845 C   0  0  0  0  0  0  0  0  0  0  0  0
   31.6679   28.8992   42.3484 C   0  0  0  0  0  0  0  0  0  0  0  0
   32.2305   30.0835   42.8194 C   0  0  0  0  0  0  0  0  0  0  0  0
   32.5075   31.1285   41.9386 C   0  0  0  0  0  0  0  0  0  0  0  0
   32.2201   31.0038   40.5649 C   0  0  0  0  0  0  0  0  0  0  0  0
   31.6454   29.8022   40.0862 C   0  0  0  0  0  0  0  0  0  0  0  0
   31.3096   29.6018   38.6533 C   0  0  0  0  0  0  0  0  0  0  0  0
   31.2880   30.5787   37.8554 O   0  0  0  0  0  0  0  0  0  0  0  0
   32.4998   32.0443   39.6628 O   0  0  0  0  0  0  0  0  0  0  0  0
   33.0776   33.2956   40.0206 C   0  0  0  0  0  0  0  0  0  0  0  0
   23.6001   26.0040   36.0503 H   0  0  0  0  0  0  0  0  0  0  0  0
   24.6739   26.9931   37.0934 H   0  0  0  0  0  0  0  0  0  0  0  0
   32.5341   28.7607   36.0673 H   0  0  0  0  0  0  0  0  0  0  0  0
   32.1347   28.3174   33.6955 H   0  0  0  0  0  0  0  0  0  0  0  0
   29.9375   27.4173   32.9983 H   0  0  0  0  0  0  0  0  0  0  0  0
   28.1242   26.1387   32.6978 H   0  0  0  0  0  0  0  0  0  0  0  0
   26.5962   27.0149   32.9873 H   0  0  0  0  0  0  0  0  0  0  0  0
   30.5646   26.2607   38.7211 H   0  0  0  0  0  0  0  0  0  0  0  0
   32.2279   26.8463   39.0756 H   0  0  0  0  0  0  0  0  0  0  0  0
   29.6154   27.6278   40.5234 H   0  0  0  0  0  0  0  0  0  0  0  0
   30.9661   26.6249   41.1679 H   0  0  0  0  0  0  0  0  0  0  0  0
   31.4475   28.1035   43.0494 H   0  0  0  0  0  0  0  0  0  0  0  0
   32.4494   30.1941   43.8737 H   0  0  0  0  0  0  0  0  0  0  0  0
   32.9455   32.0326   42.3383 H   0  0  0  0  0  0  0  0  0  0  0  0
   34.0847   33.1393   40.4616 H   0  0  0  0  0  0  0  0  0  0  0  0
   33.1825   33.9195   39.1095 H   0  0  0  0  0  0  0  0  0  0  0  0
   32.4211   33.8274   40.7413 H   0  0  0  0  0  0  0  0  0  0  0  0
  1  2  1  0
  2  3  2  0
  2  4  1  0
  4  5  2  0
  5  6  1  0
  6  7  2  0
  7  8  1  0
  8  9  2  0
  9 10  1  0
 10 11  2  0
 11 12  1  0
 12 13  2  0
 13 14  1  0
  8 15  1  0
 15 16  1  0
 16 17  1  0
 17 18  1  0
 18 19  2  0
 19 20  1  0
 20 21  2  0
 21 22  1  0
 22 23  2  0
 23 24  1  0
 24 25  2  0
 22 26  1  0
 26 27  1  0
 13  4  1  0
 24 15  1  0
 12  7  1  0
 23 18  1  0
  1 28  1  0
  1 29  1  0
  9 30  1  0
 10 31  1  0
 11 32  1  0
 14 33  1  0
 14 34  1  0
 16 35  1  0
 16 36  1  0
 17 37  1  0
 17 38  1  0
 19 39  1  0
 20 40  1  0
 21 41  1  0
 27 42  1  0
 27 43  1  0
 27 44  1  0
M  END
$$$$
confid_8
     RDKit          3D

 44 47  0  0  0  0  0  0  0  0999 V2000
   24.5500   26.3900   36.2500 N   0  0  0  0  0  0  0  0  0  0  0  0
   25.6000   26.1300   35.4000 C   0  0  0  0  0  0  0  0  0  0  0  0
   25.4300   25.4300   34.4200 O   0  0  0  0  0  0  0  0  0  0  0  0
   26.9800   26.6300   35.7100 C   0  0  0  0  0  0  0  0  0  0  0  0
   27.3200   26.8200   36.9800 N   0  0  0  0  0  0  0  0  0  0  0  0
   28.4700   27.4000   37.3100 N   0  0  0  0  0  0  0  0  0  0  0  0
   29.4000   27.6300   36.3700 C   0  0  0  0  0  0  0  0  0  0  0  0
   30.6600   28.0500   36.8000 C   0  0  0  0  0  0  0  0  0  0  0  0
   31.5700   28.3600   35.7800 C   0  0  0  0  0  0  0  0  0  0  0  0
   31.3700   28.1000   34.4300 C   0  0  0  0  0  0  0  0  0  0  0  0
   30.1200   27.5900   34.0500 C   0  0  0  0  0  0  0  0  0  0  0  0
   29.1500   27.3400   35.0300 C   0  0  0  0  0  0  0  0  0  0  0  0
   27.8800   26.8900   34.6600 C   0  0  0  0  0  0  0  0  0  0  0  0
   27.4800   26.6100   33.3700 N   0  0  0  0  0  0  0  0  0  0  0  0
   30.9607   28.3373   38.1824 N   0  0  0  0  0  0  0  0  0  0  0  0
   31.2594   29.7262   38.5638 C   0  0  0  0  0  0  0  0  0  0  0  0
   31.9540   29.8018   39.9280 C   0  0  0  0  0  0  0  0  0  0  0  0
   31.1807   29.0337   40.9635 C   0  0  0  0  0  0  0  0  0  0  0  0
   31.1119   29.4992   42.2830 C   0  0  0  0  0  0  0  0  0  0  0  0
   30.4294   28.7646   43.2494 C   0  0  0  0  0  0  0  0  0  0  0  0
   29.8342   27.5466   42.9168 C   0  0  0  0  0  0  0  0  0  0  0  0
   29.9077   27.0490   41.5997 C   0  0  0  0  0  0  0  0  0  0  0  0
   30.5997   27.7973   40.6222 C   0  0  0  0  0  0  0  0  0  0  0  0
   30.6878   27.3602   39.2100 C   0  0  0  0  0  0  0  0  0  0  0  0
   30.5509   26.1440   38.9066 O   0  0  0  0  0  0  0  0  0  0  0  0
   29.3007   25.8363   41.2411 O   0  0  0  0  0  0  0  0  0  0  0  0
   28.6071   24.9814   42.1412 C   0  0  0  0  0  0  0  0  0  0  0  0
   23.6007   26.0001   36.0529 H   0  0  0  0  0  0  0  0  0  0  0  0
   24.6721   26.9988   37.0889 H   0  0  0  0  0  0  0  0  0  0  0  0
   32.5368   28.7570   36.0622 H   0  0  0  0  0  0  0  0  0  0  0  0
   32.1349   28.3165   33.6955 H   0  0  0  0  0  0  0  0  0  0  0  0
   29.9370   27.4175   32.9987 H   0  0  0  0  0  0  0  0  0  0  0  0
   26.5959   27.0130   32.9877 H   0  0  0  0  0  0  0  0  0  0  0  0
   28.1242   26.1406   32.6967 H   0  0  0  0  0  0  0  0  0  0  0  0
   30.3121   30.3038   38.6005 H   0  0  0  0  0  0  0  0  0  0  0  0
   31.9203   30.2036   37.8119 H   0  0  0  0  0  0  0  0  0  0  0  0
   32.0522   30.8689   40.2215 H   0  0  0  0  0  0  0  0  0  0  0  0
   32.9728   29.3669   39.8518 H   0  0  0  0  0  0  0  0  0  0  0  0
   31.5819   30.4338   42.5632 H   0  0  0  0  0  0  0  0  0  0  0  0
   30.3620   29.1379   44.2636 H   0  0  0  0  0  0  0  0  0  0  0  0
   29.2963   27.0122   43.6843 H   0  0  0  0  0  0  0  0  0  0  0  0
   28.2825   24.0692   41.5966 H   0  0  0  0  0  0  0  0  0  0  0  0
   27.7094   25.4970   42.5480 H   0  0  0  0  0  0  0  0  0  0  0  0
   29.2767   24.6701   42.9707 H   0  0  0  0  0  0  0  0  0  0  0  0
  1  2  1  0
  2  3  2  0
  2  4  1  0
  4  5  2  0
  5  6  1  0
  6  7  2  0
  7  8  1  0
  8  9  2  0
  9 10  1  0
 10 11  2  0
 11 12  1  0
 12 13  2  0
 13 14  1  0
  8 15  1  0
 15 16  1  0
 16 17  1  0
 17 18  1  0
 18 19  2  0
 19 20  1  0
 20 21  2  0
 21 22  1  0
 22 23  2  0
 23 24  1  0
 24 25  2  0
 22 26  1  0
 26 27  1  0
 13  4  1  0
 24 15  1  0
 12  7  1  0
 23 18  1  0
  1 28  1  0
  1 29  1  0
  9 30  1  0
 10 31  1  0
 11 32  1  0
 14 33  1  0
 14 34  1  0
 16 35  1  0
 16 36  1  0
 17 37  1  0
 17 38  1  0
 19 39  1  0
 20 40  1  0
 21 41  1  0
 27 42  1  0
 27 43  1  0
 27 44  1  0
M  END
$$$$
