confid_0
     RDKit          3D

 57 61  0  0  0  0  0  0  0  0999 V2000
   24.6900   26.1200   35.5300 N   0  0  0  0  0  0  0  0  0  0  0  0
   25.6600   25.6700   34.6600 C   0  0  0  0  0  0  0  0  0  0  0  0
   25.2400   25.0100   33.7200 O   0  0  0  0  0  0  0  0  0  0  0  0
   27.0300   26.2200   34.8800 C   0  0  0  0  0  0  0  0  0  0  0  0
   27.3500   26.7300   36.0700 N   0  0  0  0  0  0  0  0  0  0  0  0
   28.5700   27.1800   36.3300 N   0  0  0  0  0  0  0  0  0  0  0  0
   29.5300   27.1100   35.3900 C   0  0  0  0  0  0  0  0  0  0  0  0
   30.8300   27.5700   35.6500 C   0  0  0  0  0  0  0  0  0  0  0  0
   31.8500   27.5400   34.6900 C   0  0  0  0  0  0  0  0  0  0  0  0
   31.5100   27.1200   33.4000 C   0  0  0  0  0  0  0  0  0  0  0  0
   30.2200   26.6300   33.1100 C   0  0  0  0  0  0  0  0  0  0  0  0
   29.2400   26.6600   34.1000 C   0  0  0  0  0  0  0  0  0  0  0  0
   27.9300   26.2600   33.8100 C   0  0  0  0  0  0  0  0  0  0  0  0
   27.5200   25.7100   32.6100 N   0  0  0  0  0  0  0  0  0  0  0  0
   23.5034   25.3814   35.8921 C   0  0  0  0  0  0  0  0  0  0  0  0
   23.3849   24.1499   35.4678 N   0  0  0  0  0  0  0  0  0  0  0  0
   22.3822   23.1240   35.5511 C   0  0  0  0  0  0  0  0  0  0  0  0
   21.0833   23.3557   35.6954 C   0  0  0  0  0  0  0  0  0  0  0  0
   19.8194   22.7203   35.1895 C   0  0  0  0  0  0  0  0  0  0  0  0
   18.9972   23.7913   35.5266 O   0  0  0  0  0  0  0  0  0  0  0  0
   20.0945   24.3871   36.1348 C   0  0  0  0  0  0  0  0  0  0  0  0
   20.4317   25.7769   35.6028 C   0  0  0  0  0  0  0  0  0  0  0  0
   21.3261   26.4054   36.6239 C   0  0  0  0  0  0  0  0  0  0  0  0
   22.5809   26.0296   36.8633 C   0  0  0  0  0  0  0  0  0  0  0  0
   23.0787   26.5790   38.1688 C   0  0  0  0  0  0  0  0  0  0  0  0
   23.2877   25.4397   39.1868 C   0  0  0  0  0  0  0  0  0  0  0  0
   24.3413   24.5095   38.7234 N   0  0  0  0  0  0  0  0  0  0  0  0
   24.0972   23.1547   39.2399 C   0  0  0  0  0  0  0  0  0  0  0  0
   25.6788   24.9686   39.1372 C   0  0  0  0  0  0  0  0  0  0  0  0
   21.9701   27.5458   38.6166 C   0  0  0  0  0  0  0  0  0  0  0  0
   20.7721   27.2480   37.7196 C   0  0  0  0  0  0  0  0  0  0  0  0
   24.8062   27.0792   35.9262 H   0  0  0  0  0  0  0  0  0  0  0  0
   31.0673   27.9414   36.6394 H   0  0  0  0  0  0  0  0  0  0  0  0
   32.8483   27.8881   34.9212 H   0  0  0  0  0  0  0  0  0  0  0  0
   32.2641   27.1261   32.6237 H   0  0  0  0  0  0  0  0  0  0  0  0
   30.0103   26.3034   32.1004 H   0  0  0  0  0  0  0  0  0  0  0  0
   28.1324   25.0453   32.0880 H   0  0  0  0  0  0  0  0  0  0  0  0
   26.6927   26.1010   32.1064 H   0  0  0  0  0  0  0  0  0  0  0  0
   22.6511   22.1626   35.1350 H   0  0  0  0  0  0  0  0  0  0  0  0
   19.5520   21.7995   35.7557 H   0  0  0  0  0  0  0  0  0  0  0  0
   19.8440   22.5665   34.0881 H   0  0  0  0  0  0  0  0  0  0  0  0
   19.9595   24.3701   37.2435 H   0  0  0  0  0  0  0  0  0  0  0  0
   19.4972   26.3722   35.5150 H   0  0  0  0  0  0  0  0  0  0  0  0
   20.9202   25.7417   34.6042 H   0  0  0  0  0  0  0  0  0  0  0  0
   24.0208   27.1502   38.0382 H   0  0  0  0  0  0  0  0  0  0  0  0
   23.5409   25.8650   40.1849 H   0  0  0  0  0  0  0  0  0  0  0  0
   22.3139   24.9088   39.3043 H   0  0  0  0  0  0  0  0  0  0  0  0
   24.0195   23.1543   40.3519 H   0  0  0  0  0  0  0  0  0  0  0  0
   24.9150   22.4676   38.9300 H   0  0  0  0  0  0  0  0  0  0  0  0
   23.1556   22.7542   38.8072 H   0  0  0  0  0  0  0  0  0  0  0  0
   26.4568   24.3064   38.7041 H   0  0  0  0  0  0  0  0  0  0  0  0
   25.8788   25.9890   38.7542 H   0  0  0  0  0  0  0  0  0  0  0  0
   25.7823   24.9708   40.2453 H   0  0  0  0  0  0  0  0  0  0  0  0
   21.7023   27.4327   39.6912 H   0  0  0  0  0  0  0  0  0  0  0  0
   22.3036   28.5948   38.4486 H   0  0  0  0  0  0  0  0  0  0  0  0
   20.0013   26.6806   38.2830 H   0  0  0  0  0  0  0  0  0  0  0  0
   20.3318   28.1824   37.3104 H   0  0  0  0  0  0  0  0  0  0  0  0
  1  2  1  0
  2  3  2  0
  2  4  1  0
  4  5  2  0
  5  6  1  0
  6  7  2  0
  7  8  1  0
  8  9  2  0
  9 10  1  0
 10 11  2  0
 11 12  1  0
 12 13  2  0
 13 14  1  0
  1 15  1  0
 15 16  2  0
 16 17  1  0
 17 18  2  0
 18 19  1  0
 19 20  1  0
 20 21  1  0
 21 22  1  0
 22 23  1  0
 23 24  2  0
 24 25  1  0
 25 26  1  0
 26 27  1  0
 27 28  1  0
 27 29  1  0
 25 30  1  0
 30 31  1  0
 13  4  1  0
 24 15  1  0
 12  7  1  0
 21 18  1  0
 31 23  1  0
  1 32  1  0
  8 33  1  0
  9 34  1  0
 10 35  1  0
 11 36  1  0
 14 37  1  0
 14 38  1  0
 17 39  1  0
 19 40  1  0
 19 41  1  0
 21 42  1  0
 22 43  1  0
 22 44  1  0
 25 45  1  0
 26 46  1  0
 26 47  1  0
 28 48  1  0
 28 49  1  0
 28 50  1  0
 29 51  1  0
 29 52  1  0
 29 53  1  0
 30 54  1  0
 30 55  1  0
 31 56  1  0
 31 57  1  0
M  END
$$$$
