confid_0
     RDKit          3D

 40 42  0  0  0  0  0  0  0  0999 V2000
   24.4800   26.1000   36.1300 N   0  0  0  0  0  0  0  0  0  0  0  0
   25.2500   26.2500   34.9900 C   0  0  0  0  0  0  0  0  0  0  0  0
   24.7400   25.7600   33.9900 O   0  0  0  0  0  0  0  0  0  0  0  0
   26.5900   26.8900   34.9600 C   0  0  0  0  0  0  0  0  0  0  0  0
   27.0600   27.2400   36.1600 N   0  0  0  0  0  0  0  0  0  0  0  0
   28.3000   27.7100   36.2400 N   0  0  0  0  0  0  0  0  0  0  0  0
   29.0500   27.9600   35.1500 C   0  0  0  0  0  0  0  0  0  0  0  0
   30.3400   28.4900   35.2600 C   0  0  0  0  0  0  0  0  0  0  0  0
   31.1100   28.8200   34.1400 C   0  0  0  0  0  0  0  0  0  0  0  0
   30.5200   28.6700   32.8800 C   0  0  0  0  0  0  0  0  0  0  0  0
   29.2900   28.0200   32.7700 C   0  0  0  0  0  0  0  0  0  0  0  0
   28.5200   27.7100   33.8900 C   0  0  0  0  0  0  0  0  0  0  0  0
   27.2700   27.0800   33.7600 C   0  0  0  0  0  0  0  0  0  0  0  0
   26.7500   26.8800   32.4900 N   0  0  0  0  0  0  0  0  0  0  0  0
   23.0436   25.9610   36.1335 C   0  0  0  0  0  0  0  0  0  0  0  0
   22.2523   26.6782   35.2201 C   0  0  0  0  0  0  0  0  0  0  0  0
   20.8594   26.5657   35.2493 C   0  0  0  0  0  0  0  0  0  0  0  0
   19.8725   27.4475   34.0887 S   0  0  0  0  0  6  0  0  0  0  0  0
   20.4848   28.7943   33.8237 O   0  0  0  0  0  0  0  0  0  0  0  0
   18.4879   27.6465   34.6387 O   0  0  0  0  0  0  0  0  0  0  0  0
   19.7802   26.5246   32.5716 C   0  0  0  0  0  0  0  0  0  0  0  0
   20.2669   25.7303   36.1997 C   0  0  0  0  0  0  0  0  0  0  0  0
   21.0398   25.0525   37.0871 N   0  0  0  0  0  0  0  0  0  0  0  0
   22.3981   25.1427   37.0857 C   0  0  0  0  0  0  0  0  0  0  0  0
   23.1736   24.3605   38.1029 C   0  0  0  0  0  0  0  0  0  0  0  0
   24.9714   26.0873   37.0513 H   0  0  0  0  0  0  0  0  0  0  0  0
   30.7580   28.6629   36.2441 H   0  0  0  0  0  0  0  0  0  0  0  0
   32.0983   29.2479   34.2470 H   0  0  0  0  0  0  0  0  0  0  0  0
   31.0669   28.9543   31.9901 H   0  0  0  0  0  0  0  0  0  0  0  0
   28.9258   27.8587   31.7656 H   0  0  0  0  0  0  0  0  0  0  0  0
   25.7670   27.1498   32.2661 H   0  0  0  0  0  0  0  0  0  0  0  0
   27.2969   26.3789   31.7552 H   0  0  0  0  0  0  0  0  0  0  0  0
   22.7178   27.3361   34.4972 H   0  0  0  0  0  0  0  0  0  0  0  0
   19.1622   27.0796   31.8361 H   0  0  0  0  0  0  0  0  0  0  0  0
   19.3204   25.5340   32.7675 H   0  0  0  0  0  0  0  0  0  0  0  0
   20.8015   26.3818   32.1620 H   0  0  0  0  0  0  0  0  0  0  0  0
   19.1917   25.6171   36.2391 H   0  0  0  0  0  0  0  0  0  0  0  0
   22.5077   23.6509   38.6385 H   0  0  0  0  0  0  0  0  0  0  0  0
   23.9763   23.7761   37.6053 H   0  0  0  0  0  0  0  0  0  0  0  0
   23.6226   25.0529   38.8454 H   0  0  0  0  0  0  0  0  0  0  0  0
  1  2  1  0
  2  3  2  0
  2  4  1  0
  4  5  2  0
  5  6  1  0
  6  7  2  0
  7  8  1  0
  8  9  2  0
  9 10  1  0
 10 11  2  0
 11 12  1  0
 12 13  2  0
 13 14  1  0
  1 15  1  0
 15 16  2  0
 16 17  1  0
 17 18  1  0
 18 19  2  0
 18 20  2  0
 18 21  1  0
 17 22  2  0
 22 23  1  0
 23 24  2  0
 24 25  1  0
 13  4  1  0
 24 15  1  0
 12  7  1  0
  1 26  1  0
  8 27  1  0
  9 28  1  0
 10 29  1  0
 11 30  1  0
 14 31  1  0
 14 32  1  0
 16 33  1  0
 21 34  1  0
 21 35  1  0
 21 36  1  0
 22 37  1  0
 25 38  1  0
 25 39  1  0
 25 40  1  0
M  END
$$$$
confid_1
     RDKit          3D

 40 42  0  0  0  0  0  0  0  0999 V2000
   24.4800   26.1000   36.1300 N   0  0  0  0  0  0  0  0  0  0  0  0
   25.2500   26.2500   34.9900 C   0  0  0  0  0  0  0  0  0  0  0  0
   24.7400   25.7600   33.9900 O   0  0  0  0  0  0  0  0  0  0  0  0
   26.5900   26.8900   34.9600 C   0  0  0  0  0  0  0  0  0  0  0  0
   27.0600   27.2400   36.1600 N   0  0  0  0  0  0  0  0  0  0  0  0
   28.3000   27.7100   36.2400 N   0  0  0  0  0  0  0  0  0  0  0  0
   29.0500   27.9600   35.1500 C   0  0  0  0  0  0  0  0  0  0  0  0
   30.3400   28.4900   35.2600 C   0  0  0  0  0  0  0  0  0  0  0  0
   31.1100   28.8200   34.1400 C   0  0  0  0  0  0  0  0  0  0  0  0
   30.5200   28.6700   32.8800 C   0  0  0  0  0  0  0  0  0  0  0  0
   29.2900   28.0200   32.7700 C   0  0  0  0  0  0  0  0  0  0  0  0
   28.5200   27.7100   33.8900 C   0  0  0  0  0  0  0  0  0  0  0  0
   27.2700   27.0800   33.7600 C   0  0  0  0  0  0  0  0  0  0  0  0
   26.7500   26.8800   32.4900 N   0  0  0  0  0  0  0  0  0  0  0  0
   23.4847   25.0727   36.3193 C   0  0  0  0  0  0  0  0  0  0  0  0
   23.7027   23.7682   35.8448 C   0  0  0  0  0  0  0  0  0  0  0  0
   22.7480   22.7693   36.0561 C   0  0  0  0  0  0  0  0  0  0  0  0
   23.0281   21.1320   35.4746 S   0  0  0  0  0  6  0  0  0  0  0  0
   23.8155   21.1760   34.1950 O   0  0  0  0  0  0  0  0  0  0  0  0
   21.7136   20.4527   35.2091 O   0  0  0  0  0  0  0  0  0  0  0  0
   23.9338   20.2160   36.7005 C   0  0  0  0  0  0  0  0  0  0  0  0
   21.5879   23.0812   36.7693 C   0  0  0  0  0  0  0  0  0  0  0  0
   21.3939   24.3413   37.2371 N   0  0  0  0  0  0  0  0  0  0  0  0
   22.2973   25.3392   37.0342 C   0  0  0  0  0  0  0  0  0  0  0  0
   22.0031   26.7015   37.5863 C   0  0  0  0  0  0  0  0  0  0  0  0
   24.6275   26.7839   36.9057 H   0  0  0  0  0  0  0  0  0  0  0  0
   30.7580   28.6629   36.2441 H   0  0  0  0  0  0  0  0  0  0  0  0
   32.0983   29.2479   34.2470 H   0  0  0  0  0  0  0  0  0  0  0  0
   31.0669   28.9543   31.9901 H   0  0  0  0  0  0  0  0  0  0  0  0
   28.9258   27.8586   31.7656 H   0  0  0  0  0  0  0  0  0  0  0  0
   25.7672   27.1503   32.2658 H   0  0  0  0  0  0  0  0  0  0  0  0
   27.2968   26.3785   31.7554 H   0  0  0  0  0  0  0  0  0  0  0  0
   24.6243   23.5243   35.3318 H   0  0  0  0  0  0  0  0  0  0  0  0
   24.9069   20.7141   36.8911 H   0  0  0  0  0  0  0  0  0  0  0  0
   24.1134   19.1835   36.3366 H   0  0  0  0  0  0  0  0  0  0  0  0
   23.3490   20.1786   37.6427 H   0  0  0  0  0  0  0  0  0  0  0  0
   20.8405   22.3231   36.9619 H   0  0  0  0  0  0  0  0  0  0  0  0
   20.9568   26.7542   37.9555 H   0  0  0  0  0  0  0  0  0  0  0  0
   22.1326   27.4706   36.7958 H   0  0  0  0  0  0  0  0  0  0  0  0
   22.6875   26.9186   38.4329 H   0  0  0  0  0  0  0  0  0  0  0  0
  1  2  1  0
  2  3  2  0
  2  4  1  0
  4  5  2  0
  5  6  1  0
  6  7  2  0
  7  8  1  0
  8  9  2  0
  9 10  1  0
 10 11  2  0
 11 12  1  0
 12 13  2  0
 13 14  1  0
  1 15  1  0
 15 16  2  0
 16 17  1  0
 17 18  1  0
 18 19  2  0
 18 20  2  0
 18 21  1  0
 17 22  2  0
 22 23  1  0
 23 24  2  0
 24 25  1  0
 13  4  1  0
 24 15  1  0
 12  7  1  0
  1 26  1  0
  8 27  1  0
  9 28  1  0
 10 29  1  0
 11 30  1  0
 14 31  1  0
 14 32  1  0
 16 33  1  0
 21 34  1  0
 21 35  1  0
 21 36  1  0
 22 37  1  0
 25 38  1  0
 25 39  1  0
 25 40  1  0
M  END
$$$$
confid_2
     RDKit          3D

 40 42  0  0  0  0  0  0  0  0999 V2000
   24.4800   26.1000   36.1300 N   0  0  0  0  0  0  0  0  0  0  0  0
   25.2500   26.2500   34.9900 C   0  0  0  0  0  0  0  0  0  0  0  0
   24.7400   25.7600   33.9900 O   0  0  0  0  0  0  0  0  0  0  0  0
   26.5900   26.8900   34.9600 C   0  0  0  0  0  0  0  0  0  0  0  0
   27.0600   27.2400   36.1600 N   0  0  0  0  0  0  0  0  0  0  0  0
   28.3000   27.7100   36.2400 N   0  0  0  0  0  0  0  0  0  0  0  0
   29.0500   27.9600   35.1500 C   0  0  0  0  0  0  0  0  0  0  0  0
   30.3400   28.4900   35.2600 C   0  0  0  0  0  0  0  0  0  0  0  0
   31.1100   28.8200   34.1400 C   0  0  0  0  0  0  0  0  0  0  0  0
   30.5200   28.6700   32.8800 C   0  0  0  0  0  0  0  0  0  0  0  0
   29.2900   28.0200   32.7700 C   0  0  0  0  0  0  0  0  0  0  0  0
   28.5200   27.7100   33.8900 C   0  0  0  0  0  0  0  0  0  0  0  0
   27.2700   27.0800   33.7600 C   0  0  0  0  0  0  0  0  0  0  0  0
   26.7500   26.8800   32.4900 N   0  0  0  0  0  0  0  0  0  0  0  0
   23.4863   25.0712   36.3205 C   0  0  0  0  0  0  0  0  0  0  0  0
   23.7074   23.7662   35.8487 C   0  0  0  0  0  0  0  0  0  0  0  0
   22.7565   22.7648   36.0650 C   0  0  0  0  0  0  0  0  0  0  0  0
   23.0260   21.1373   35.4510 S   0  0  0  0  0  6  0  0  0  0  0  0
   22.2196   20.1484   36.2456 O   0  0  0  0  0  0  0  0  0  0  0  0
   24.4817   20.7842   35.5755 O   0  0  0  0  0  0  0  0  0  0  0  0
   22.5370   21.0639   33.7429 C   0  0  0  0  0  0  0  0  0  0  0  0
   21.5851   23.0811   36.7579 C   0  0  0  0  0  0  0  0  0  0  0  0
   21.3881   24.3418   37.2228 N   0  0  0  0  0  0  0  0  0  0  0  0
   22.2955   25.3381   37.0296 C   0  0  0  0  0  0  0  0  0  0  0  0
   21.9980   26.7012   37.5781 C   0  0  0  0  0  0  0  0  0  0  0  0
   24.6245   26.7867   36.9036 H   0  0  0  0  0  0  0  0  0  0  0  0
   30.7582   28.6623   36.2441 H   0  0  0  0  0  0  0  0  0  0  0  0
   32.0994   29.2455   34.2469 H   0  0  0  0  0  0  0  0  0  0  0  0
   31.0715   28.9442   31.9898 H   0  0  0  0  0  0  0  0  0  0  0  0
   28.9437   27.8129   31.7669 H   0  0  0  0  0  0  0  0  0  0  0  0
   26.3615   25.9529   32.2112 H   0  0  0  0  0  0  0  0  0  0  0  0
   26.7157   27.6566   31.7925 H   0  0  0  0  0  0  0  0  0  0  0  0
   24.6255   23.5251   35.3281 H   0  0  0  0  0  0  0  0  0  0  0  0
   23.1375   21.7878   33.1540 H   0  0  0  0  0  0  0  0  0  0  0  0
   22.7060   20.0396   33.3512 H   0  0  0  0  0  0  0  0  0  0  0  0
   21.4610   21.3202   33.6541 H   0  0  0  0  0  0  0  0  0  0  0  0
   20.8280   22.3282   36.9318 H   0  0  0  0  0  0  0  0  0  0  0  0
   22.6804   26.9219   38.4253 H   0  0  0  0  0  0  0  0  0  0  0  0
   20.9509   26.7529   37.9454 H   0  0  0  0  0  0  0  0  0  0  0  0
   22.1274   27.4686   36.7859 H   0  0  0  0  0  0  0  0  0  0  0  0
  1  2  1  0
  2  3  2  0
  2  4  1  0
  4  5  2  0
  5  6  1  0
  6  7  2  0
  7  8  1  0
  8  9  2  0
  9 10  1  0
 10 11  2  0
 11 12  1  0
 12 13  2  0
 13 14  1  0
  1 15  1  0
 15 16  2  0
 16 17  1  0
 17 18  1  0
 18 19  2  0
 18 20  2  0
 18 21  1  0
 17 22  2  0
 22 23  1  0
 23 24  2  0
 24 25  1  0
 13  4  1  0
 24 15  1  0
 12  7  1  0
  1 26  1  0
  8 27  1  0
  9 28  1  0
 10 29  1  0
 11 30  1  0
 14 31  1  0
 14 32  1  0
 16 33  1  0
 21 34  1  0
 21 35  1  0
 21 36  1  0
 22 37  1  0
 25 38  1  0
 25 39  1  0
 25 40  1  0
M  END
$$$$
confid_3
     RDKit          3D

 40 42  0  0  0  0  0  0  0  0999 V2000
   24.4800   26.1000   36.1300 N   0  0  0  0  0  0  0  0  0  0  0  0
   25.2500   26.2500   34.9900 C   0  0  0  0  0  0  0  0  0  0  0  0
   24.7400   25.7600   33.9900 O   0  0  0  0  0  0  0  0  0  0  0  0
   26.5900   26.8900   34.9600 C   0  0  0  0  0  0  0  0  0  0  0  0
   27.0600   27.2400   36.1600 N   0  0  0  0  0  0  0  0  0  0  0  0
   28.3000   27.7100   36.2400 N   0  0  0  0  0  0  0  0  0  0  0  0
   29.0500   27.9600   35.1500 C   0  0  0  0  0  0  0  0  0  0  0  0
   30.3400   28.4900   35.2600 C   0  0  0  0  0  0  0  0  0  0  0  0
   31.1100   28.8200   34.1400 C   0  0  0  0  0  0  0  0  0  0  0  0
   30.5200   28.6700   32.8800 C   0  0  0  0  0  0  0  0  0  0  0  0
   29.2900   28.0200   32.7700 C   0  0  0  0  0  0  0  0  0  0  0  0
   28.5200   27.7100   33.8900 C   0  0  0  0  0  0  0  0  0  0  0  0
   27.2700   27.0800   33.7600 C   0  0  0  0  0  0  0  0  0  0  0  0
   26.7500   26.8800   32.4900 N   0  0  0  0  0  0  0  0  0  0  0  0
   23.0427   25.9681   36.1343 C   0  0  0  0  0  0  0  0  0  0  0  0
   22.2548   26.6826   35.2157 C   0  0  0  0  0  0  0  0  0  0  0  0
   20.8615   26.5748   35.2435 C   0  0  0  0  0  0  0  0  0  0  0  0
   19.8751   27.4810   34.1018 S   0  0  0  0  0  6  0  0  0  0  0  0
   20.5977   27.5996   32.7893 O   0  0  0  0  0  0  0  0  0  0  0  0
   18.5727   26.7665   33.8727 O   0  0  0  0  0  0  0  0  0  0  0  0
   19.5555   29.1035   34.7551 C   0  0  0  0  0  0  0  0  0  0  0  0
   20.2639   25.7676   36.2146 C   0  0  0  0  0  0  0  0  0  0  0  0
   21.0334   25.0927   37.1071 N   0  0  0  0  0  0  0  0  0  0  0  0
   22.3927   25.1645   37.0960 C   0  0  0  0  0  0  0  0  0  0  0  0
   23.1637   24.3869   38.1201 C   0  0  0  0  0  0  0  0  0  0  0  0
   24.9718   26.0869   37.0511 H   0  0  0  0  0  0  0  0  0  0  0  0
   30.7580   28.6628   36.2441 H   0  0  0  0  0  0  0  0  0  0  0  0
   32.0983   29.2479   34.2470 H   0  0  0  0  0  0  0  0  0  0  0  0
   31.0669   28.9543   31.9901 H   0  0  0  0  0  0  0  0  0  0  0  0
   28.9258   27.8587   31.7656 H   0  0  0  0  0  0  0  0  0  0  0  0
   27.2969   26.3789   31.7552 H   0  0  0  0  0  0  0  0  0  0  0  0
   25.7670   27.1499   32.2661 H   0  0  0  0  0  0  0  0  0  0  0  0
   22.7230   27.3403   34.4943 H   0  0  0  0  0  0  0  0  0  0  0  0
   20.5166   29.6343   34.9151 H   0  0  0  0  0  0  0  0  0  0  0  0
   19.0191   29.0146   35.7222 H   0  0  0  0  0  0  0  0  0  0  0  0
   18.9321   29.6771   34.0387 H   0  0  0  0  0  0  0  0  0  0  0  0
   19.1871   25.6795   36.2697 H   0  0  0  0  0  0  0  0  0  0  0  0
   22.4941   23.6837   38.6596 H   0  0  0  0  0  0  0  0  0  0  0  0
   23.9650   23.7957   37.6285 H   0  0  0  0  0  0  0  0  0  0  0  0
   23.6136   25.0830   38.8586 H   0  0  0  0  0  0  0  0  0  0  0  0
  1  2  1  0
  2  3  2  0
  2  4  1  0
  4  5  2  0
  5  6  1  0
  6  7  2  0
  7  8  1  0
  8  9  2  0
  9 10  1  0
 10 11  2  0
 11 12  1  0
 12 13  2  0
 13 14  1  0
  1 15  1  0
 15 16  2  0
 16 17  1  0
 17 18  1  0
 18 19  2  0
 18 20  2  0
 18 21  1  0
 17 22  2  0
 22 23  1  0
 23 24  2  0
 24 25  1  0
 13  4  1  0
 24 15  1  0
 12  7  1  0
  1 26  1  0
  8 27  1  0
  9 28  1  0
 10 29  1  0
 11 30  1  0
 14 31  1  0
 14 32  1  0
 16 33  1  0
 21 34  1  0
 21 35  1  0
 21 36  1  0
 22 37  1  0
 25 38  1  0
 25 39  1  0
 25 40  1  0
M  END
$$$$
confid_4
     RDKit          3D

 40 42  0  0  0  0  0  0  0  0999 V2000
   24.4800   26.1000   36.1300 N   0  0  0  0  0  0  0  0  0  0  0  0
   25.2500   26.2500   34.9900 C   0  0  0  0  0  0  0  0  0  0  0  0
   24.7400   25.7600   33.9900 O   0  0  0  0  0  0  0  0  0  0  0  0
   26.5900   26.8900   34.9600 C   0  0  0  0  0  0  0  0  0  0  0  0
   27.0600   27.2400   36.1600 N   0  0  0  0  0  0  0  0  0  0  0  0
   28.3000   27.7100   36.2400 N   0  0  0  0  0  0  0  0  0  0  0  0
   29.0500   27.9600   35.1500 C   0  0  0  0  0  0  0  0  0  0  0  0
   30.3400   28.4900   35.2600 C   0  0  0  0  0  0  0  0  0  0  0  0
   31.1100   28.8200   34.1400 C   0  0  0  0  0  0  0  0  0  0  0  0
   30.5200   28.6700   32.8800 C   0  0  0  0  0  0  0  0  0  0  0  0
   29.2900   28.0200   32.7700 C   0  0  0  0  0  0  0  0  0  0  0  0
   28.5200   27.7100   33.8900 C   0  0  0  0  0  0  0  0  0  0  0  0
   27.2700   27.0800   33.7600 C   0  0  0  0  0  0  0  0  0  0  0  0
   26.7500   26.8800   32.4900 N   0  0  0  0  0  0  0  0  0  0  0  0
   23.0418   25.9786   36.1354 C   0  0  0  0  0  0  0  0  0  0  0  0
   22.2582   26.6995   35.2180 C   0  0  0  0  0  0  0  0  0  0  0  0
   20.8640   26.6048   35.2495 C   0  0  0  0  0  0  0  0  0  0  0  0
   19.8846   27.4863   34.0824 S   0  0  0  0  0  6  0  0  0  0  0  0
   18.5266   27.7667   34.6624 O   0  0  0  0  0  0  0  0  0  0  0  0
   20.5459   28.7940   33.7482 O   0  0  0  0  0  0  0  0  0  0  0  0
   19.7099   26.5119   32.6055 C   0  0  0  0  0  0  0  0  0  0  0  0
   20.2623   25.7842   36.2067 C   0  0  0  0  0  0  0  0  0  0  0  0
   21.0276   25.1025   37.0976 N   0  0  0  0  0  0  0  0  0  0  0  0
   22.3869   25.1749   37.0937 C   0  0  0  0  0  0  0  0  0  0  0  0
   23.1533   24.3884   38.1146 C   0  0  0  0  0  0  0  0  0  0  0  0
   24.9735   26.0760   37.0497 H   0  0  0  0  0  0  0  0  0  0  0  0
   30.7580   28.6629   36.2441 H   0  0  0  0  0  0  0  0  0  0  0  0
   32.0983   29.2480   34.2470 H   0  0  0  0  0  0  0  0  0  0  0  0
   31.0669   28.9543   31.9901 H   0  0  0  0  0  0  0  0  0  0  0  0
   28.9258   27.8587   31.7656 H   0  0  0  0  0  0  0  0  0  0  0  0
   27.2968   26.3787   31.7553 H   0  0  0  0  0  0  0  0  0  0  0  0
   25.7673   27.1508   32.2659 H   0  0  0  0  0  0  0  0  0  0  0  0
   22.7311   27.3467   34.4904 H   0  0  0  0  0  0  0  0  0  0  0  0
   20.7113   26.3158   32.1700 H   0  0  0  0  0  0  0  0  0  0  0  0
   19.0882   27.0610   31.8685 H   0  0  0  0  0  0  0  0  0  0  0  0
   19.2213   25.5472   32.8537 H   0  0  0  0  0  0  0  0  0  0  0  0
   19.1858   25.6851   36.2481 H   0  0  0  0  0  0  0  0  0  0  0  0
   22.4768   23.6987   38.6628 H   0  0  0  0  0  0  0  0  0  0  0  0
   23.6218   25.0787   38.8466 H   0  0  0  0  0  0  0  0  0  0  0  0
   23.9400   23.7823   37.6177 H   0  0  0  0  0  0  0  0  0  0  0  0
  1  2  1  0
  2  3  2  0
  2  4  1  0
  4  5  2  0
  5  6  1  0
  6  7  2  0
  7  8  1  0
  8  9  2  0
  9 10  1  0
 10 11  2  0
 11 12  1  0
 12 13  2  0
 13 14  1  0
  1 15  1  0
 15 16  2  0
 16 17  1  0
 17 18  1  0
 18 19  2  0
 18 20  2  0
 18 21  1  0
 17 22  2  0
 22 23  1  0
 23 24  2  0
 24 25  1  0
 13  4  1  0
 24 15  1  0
 12  7  1  0
  1 26  1  0
  8 27  1  0
  9 28  1  0
 10 29  1  0
 11 30  1  0
 14 31  1  0
 14 32  1  0
 16 33  1  0
 21 34  1  0
 21 35  1  0
 21 36  1  0
 22 37  1  0
 25 38  1  0
 25 39  1  0
 25 40  1  0
M  END
$$$$
confid_5
     RDKit          3D

 40 42  0  0  0  0  0  0  0  0999 V2000
   24.4800   26.1000   36.1300 N   0  0  0  0  0  0  0  0  0  0  0  0
   25.2500   26.2500   34.9900 C   0  0  0  0  0  0  0  0  0  0  0  0
   24.7400   25.7600   33.9900 O   0  0  0  0  0  0  0  0  0  0  0  0
   26.5900   26.8900   34.9600 C   0  0  0  0  0  0  0  0  0  0  0  0
   27.0600   27.2400   36.1600 N   0  0  0  0  0  0  0  0  0  0  0  0
   28.3000   27.7100   36.2400 N   0  0  0  0  0  0  0  0  0  0  0  0
   29.0500   27.9600   35.1500 C   0  0  0  0  0  0  0  0  0  0  0  0
   30.3400   28.4900   35.2600 C   0  0  0  0  0  0  0  0  0  0  0  0
   31.1100   28.8200   34.1400 C   0  0  0  0  0  0  0  0  0  0  0  0
   30.5200   28.6700   32.8800 C   0  0  0  0  0  0  0  0  0  0  0  0
   29.2900   28.0200   32.7700 C   0  0  0  0  0  0  0  0  0  0  0  0
   28.5200   27.7100   33.8900 C   0  0  0  0  0  0  0  0  0  0  0  0
   27.2700   27.0800   33.7600 C   0  0  0  0  0  0  0  0  0  0  0  0
   26.7500   26.8800   32.4900 N   0  0  0  0  0  0  0  0  0  0  0  0
   23.0442   25.9541   36.1337 C   0  0  0  0  0  0  0  0  0  0  0  0
   22.2495   26.6643   35.2174 C   0  0  0  0  0  0  0  0  0  0  0  0
   20.8573   26.5412   35.2437 C   0  0  0  0  0  0  0  0  0  0  0  0
   19.8605   27.4402   34.1051 S   0  0  0  0  0  6  0  0  0  0  0  0
   18.5890   26.6855   33.8348 O   0  0  0  0  0  0  0  0  0  0  0  0
   20.6016   27.6165   32.8094 O   0  0  0  0  0  0  0  0  0  0  0  0
   19.4723   29.0343   34.7903 C   0  0  0  0  0  0  0  0  0  0  0  0
   20.2678   25.7231   36.2104 C   0  0  0  0  0  0  0  0  0  0  0  0
   21.0437   25.0518   37.1001 N   0  0  0  0  0  0  0  0  0  0  0  0
   22.4022   25.1389   37.0909 C   0  0  0  0  0  0  0  0  0  0  0  0
   23.1812   24.3609   38.1085 C   0  0  0  0  0  0  0  0  0  0  0  0
   24.9710   26.0915   37.0515 H   0  0  0  0  0  0  0  0  0  0  0  0
   30.7580   28.6629   36.2441 H   0  0  0  0  0  0  0  0  0  0  0  0
   32.0983   29.2480   34.2471 H   0  0  0  0  0  0  0  0  0  0  0  0
   31.0668   28.9543   31.9901 H   0  0  0  0  0  0  0  0  0  0  0  0
   28.9258   27.8587   31.7656 H   0  0  0  0  0  0  0  0  0  0  0  0
   25.7670   27.1499   32.2661 H   0  0  0  0  0  0  0  0  0  0  0  0
   27.2969   26.3790   31.7552 H   0  0  0  0  0  0  0  0  0  0  0  0
   22.7118   27.3298   34.4995 H   0  0  0  0  0  0  0  0  0  0  0  0
   18.9170   28.9035   35.7420 H   0  0  0  0  0  0  0  0  0  0  0  0
   20.4111   29.5924   34.9859 H   0  0  0  0  0  0  0  0  0  0  0  0
   18.8465   29.6049   34.0735 H   0  0  0  0  0  0  0  0  0  0  0  0
   19.1919   25.6235   36.2639 H   0  0  0  0  0  0  0  0  0  0  0  0
   22.5172   23.6532   38.6489 H   0  0  0  0  0  0  0  0  0  0  0  0
   23.6321   25.0559   38.8473 H   0  0  0  0  0  0  0  0  0  0  0  0
   23.9824   23.7751   37.6105 H   0  0  0  0  0  0  0  0  0  0  0  0
  1  2  1  0
  2  3  2  0
  2  4  1  0
  4  5  2  0
  5  6  1  0
  6  7  2  0
  7  8  1  0
  8  9  2  0
  9 10  1  0
 10 11  2  0
 11 12  1  0
 12 13  2  0
 13 14  1  0
  1 15  1  0
 15 16  2  0
 16 17  1  0
 17 18  1  0
 18 19  2  0
 18 20  2  0
 18 21  1  0
 17 22  2  0
 22 23  1  0
 23 24  2  0
 24 25  1  0
 13  4  1  0
 24 15  1  0
 12  7  1  0
  1 26  1  0
  8 27  1  0
  9 28  1  0
 10 29  1  0
 11 30  1  0
 14 31  1  0
 14 32  1  0
 16 33  1  0
 21 34  1  0
 21 35  1  0
 21 36  1  0
 22 37  1  0
 25 38  1  0
 25 39  1  0
 25 40  1  0
M  END
$$$$
confid_6
     RDKit          3D

 40 42  0  0  0  0  0  0  0  0999 V2000
   24.4800   26.1000   36.1300 N   0  0  0  0  0  0  0  0  0  0  0  0
   25.2500   26.2500   34.9900 C   0  0  0  0  0  0  0  0  0  0  0  0
   24.7400   25.7600   33.9900 O   0  0  0  0  0  0  0  0  0  0  0  0
   26.5900   26.8900   34.9600 C   0  0  0  0  0  0  0  0  0  0  0  0
   27.0600   27.2400   36.1600 N   0  0  0  0  0  0  0  0  0  0  0  0
   28.3000   27.7100   36.2400 N   0  0  0  0  0  0  0  0  0  0  0  0
   29.0500   27.9600   35.1500 C   0  0  0  0  0  0  0  0  0  0  0  0
   30.3400   28.4900   35.2600 C   0  0  0  0  0  0  0  0  0  0  0  0
   31.1100   28.8200   34.1400 C   0  0  0  0  0  0  0  0  0  0  0  0
   30.5200   28.6700   32.8800 C   0  0  0  0  0  0  0  0  0  0  0  0
   29.2900   28.0200   32.7700 C   0  0  0  0  0  0  0  0  0  0  0  0
   28.5200   27.7100   33.8900 C   0  0  0  0  0  0  0  0  0  0  0  0
   27.2700   27.0800   33.7600 C   0  0  0  0  0  0  0  0  0  0  0  0
   26.7500   26.8800   32.4900 N   0  0  0  0  0  0  0  0  0  0  0  0
   23.4921   25.0661   36.3223 C   0  0  0  0  0  0  0  0  0  0  0  0
   23.7227   23.7609   35.8565 C   0  0  0  0  0  0  0  0  0  0  0  0
   22.7766   22.7548   36.0719 C   0  0  0  0  0  0  0  0  0  0  0  0
   23.0741   21.1158   35.5044 S   0  0  0  0  0  6  0  0  0  0  0  0
   21.7676   20.4237   35.2341 O   0  0  0  0  0  0  0  0  0  0  0  0
   23.8712   21.1564   34.2307 O   0  0  0  0  0  0  0  0  0  0  0  0
   23.9775   20.2170   36.7442 C   0  0  0  0  0  0  0  0  0  0  0  0
   21.6115   23.0611   36.7794 C   0  0  0  0  0  0  0  0  0  0  0  0
   21.4053   24.3222   37.2392 N   0  0  0  0  0  0  0  0  0  0  0  0
   22.3008   25.3267   37.0329 C   0  0  0  0  0  0  0  0  0  0  0  0
   21.9951   26.6890   37.5789 C   0  0  0  0  0  0  0  0  0  0  0  0
   24.6214   26.7890   36.9022 H   0  0  0  0  0  0  0  0  0  0  0  0
   30.7582   28.6623   36.2441 H   0  0  0  0  0  0  0  0  0  0  0  0
   32.0994   29.2455   34.2469 H   0  0  0  0  0  0  0  0  0  0  0  0
   31.0715   28.9442   31.9898 H   0  0  0  0  0  0  0  0  0  0  0  0
   28.9437   27.8129   31.7669 H   0  0  0  0  0  0  0  0  0  0  0  0
   26.7156   27.6566   31.7926 H   0  0  0  0  0  0  0  0  0  0  0  0
   26.3616   25.9528   32.2111 H   0  0  0  0  0  0  0  0  0  0  0  0
   24.6477   23.5223   35.3469 H   0  0  0  0  0  0  0  0  0  0  0  0
   24.1675   19.1829   36.3898 H   0  0  0  0  0  0  0  0  0  0  0  0
   23.3857   20.1828   37.6821 H   0  0  0  0  0  0  0  0  0  0  0  0
   24.9454   20.7240   36.9380 H   0  0  0  0  0  0  0  0  0  0  0  0
   20.8703   22.2976   36.9750 H   0  0  0  0  0  0  0  0  0  0  0  0
   22.6742   26.9137   38.4278 H   0  0  0  0  0  0  0  0  0  0  0  0
   22.1228   27.4563   36.7864 H   0  0  0  0  0  0  0  0  0  0  0  0
   20.9468   26.7359   37.9430 H   0  0  0  0  0  0  0  0  0  0  0  0
  1  2  1  0
  2  3  2  0
  2  4  1  0
  4  5  2  0
  5  6  1  0
  6  7  2  0
  7  8  1  0
  8  9  2  0
  9 10  1  0
 10 11  2  0
 11 12  1  0
 12 13  2  0
 13 14  1  0
  1 15  1  0
 15 16  2  0
 16 17  1  0
 17 18  1  0
 18 19  2  0
 18 20  2  0
 18 21  1  0
 17 22  2  0
 22 23  1  0
 23 24  2  0
 24 25  1  0
 13  4  1  0
 24 15  1  0
 12  7  1  0
  1 26  1  0
  8 27  1  0
  9 28  1  0
 10 29  1  0
 11 30  1  0
 14 31  1  0
 14 32  1  0
 16 33  1  0
 21 34  1  0
 21 35  1  0
 21 36  1  0
 22 37  1  0
 25 38  1  0
 25 39  1  0
 25 40  1  0
M  END
$$$$
confid_7
     RDKit          3D

 40 42  0  0  0  0  0  0  0  0999 V2000
   24.4800   26.1000   36.1300 N   0  0  0  0  0  0  0  0  0  0  0  0
   25.2500   26.2500   34.9900 C   0  0  0  0  0  0  0  0  0  0  0  0
   24.7400   25.7600   33.9900 O   0  0  0  0  0  0  0  0  0  0  0  0
   26.5900   26.8900   34.9600 C   0  0  0  0  0  0  0  0  0  0  0  0
   27.0600   27.2400   36.1600 N   0  0  0  0  0  0  0  0  0  0  0  0
   28.3000   27.7100   36.2400 N   0  0  0  0  0  0  0  0  0  0  0  0
   29.0500   27.9600   35.1500 C   0  0  0  0  0  0  0  0  0  0  0  0
   30.3400   28.4900   35.2600 C   0  0  0  0  0  0  0  0  0  0  0  0
   31.1100   28.8200   34.1400 C   0  0  0  0  0  0  0  0  0  0  0  0
   30.5200   28.6700   32.8800 C   0  0  0  0  0  0  0  0  0  0  0  0
   29.2900   28.0200   32.7700 C   0  0  0  0  0  0  0  0  0  0  0  0
   28.5200   27.7100   33.8900 C   0  0  0  0  0  0  0  0  0  0  0  0
   27.2700   27.0800   33.7600 C   0  0  0  0  0  0  0  0  0  0  0  0
   26.7500   26.8800   32.4900 N   0  0  0  0  0  0  0  0  0  0  0  0
   23.4853   25.0721   36.3200 C   0  0  0  0  0  0  0  0  0  0  0  0
   23.7054   23.7670   35.8484 C   0  0  0  0  0  0  0  0  0  0  0  0
   22.7542   22.7662   36.0652 C   0  0  0  0  0  0  0  0  0  0  0  0
   23.0233   21.1382   35.4523 S   0  0  0  0  0  6  0  0  0  0  0  0
   24.4789   20.7852   35.5770 O   0  0  0  0  0  0  0  0  0  0  0  0
   22.2168   20.1501   36.2478 O   0  0  0  0  0  0  0  0  0  0  0  0
   22.5346   21.0634   33.7442 C   0  0  0  0  0  0  0  0  0  0  0  0
   21.5828   23.0834   36.7576 C   0  0  0  0  0  0  0  0  0  0  0  0
   21.3867   24.3442   37.2224 N   0  0  0  0  0  0  0  0  0  0  0  0
   22.2950   25.3397   37.0296 C   0  0  0  0  0  0  0  0  0  0  0  0
   21.9991   26.7029   37.5791 C   0  0  0  0  0  0  0  0  0  0  0  0
   24.6263   26.7852   36.9047 H   0  0  0  0  0  0  0  0  0  0  0  0
   30.7580   28.6629   36.2441 H   0  0  0  0  0  0  0  0  0  0  0  0
   32.0983   29.2479   34.2470 H   0  0  0  0  0  0  0  0  0  0  0  0
   31.0669   28.9543   31.9901 H   0  0  0  0  0  0  0  0  0  0  0  0
   28.9258   27.8587   31.7656 H   0  0  0  0  0  0  0  0  0  0  0  0
   27.2968   26.3785   31.7554 H   0  0  0  0  0  0  0  0  0  0  0  0
   25.7672   27.1501   32.2658 H   0  0  0  0  0  0  0  0  0  0  0  0
   24.6230   23.5253   35.3270 H   0  0  0  0  0  0  0  0  0  0  0  0
   22.7039   20.0389   33.3534 H   0  0  0  0  0  0  0  0  0  0  0  0
   23.1351   21.7868   33.1548 H   0  0  0  0  0  0  0  0  0  0  0  0
   21.4586   21.3189   33.6544 H   0  0  0  0  0  0  0  0  0  0  0  0
   20.8251   22.3310   36.9312 H   0  0  0  0  0  0  0  0  0  0  0  0
   22.6820   26.9223   38.4262 H   0  0  0  0  0  0  0  0  0  0  0  0
   20.9523   26.7556   37.9469 H   0  0  0  0  0  0  0  0  0  0  0  0
   22.1292   27.4706   36.7873 H   0  0  0  0  0  0  0  0  0  0  0  0
  1  2  1  0
  2  3  2  0
  2  4  1  0
  4  5  2  0
  5  6  1  0
  6  7  2  0
  7  8  1  0
  8  9  2  0
  9 10  1  0
 10 11  2  0
 11 12  1  0
 12 13  2  0
 13 14  1  0
  1 15  1  0
 15 16  2  0
 16 17  1  0
 17 18  1  0
 18 19  2  0
 18 20  2  0
 18 21  1  0
 17 22  2  0
 22 23  1  0
 23 24  2  0
 24 25  1  0
 13  4  1  0
 24 15  1  0
 12  7  1  0
  1 26  1  0
  8 27  1  0
  9 28  1  0
 10 29  1  0
 11 30  1  0
 14 31  1  0
 14 32  1  0
 16 33  1  0
 21 34  1  0
 21 35  1  0
 21 36  1  0
 22 37  1  0
 25 38  1  0
 25 39  1  0
 25 40  1  0
M  END
$$$$
confid_8
     RDKit          3D

 40 42  0  0  0  0  0  0  0  0999 V2000
   24.4800   26.1000   36.1300 N   0  0  0  0  0  0  0  0  0  0  0  0
   25.2500   26.2500   34.9900 C   0  0  0  0  0  0  0  0  0  0  0  0
   24.7400   25.7600   33.9900 O   0  0  0  0  0  0  0  0  0  0  0  0
   26.5900   26.8900   34.9600 C   0  0  0  0  0  0  0  0  0  0  0  0
   27.0600   27.2400   36.1600 N   0  0  0  0  0  0  0  0  0  0  0  0
   28.3000   27.7100   36.2400 N   0  0  0  0  0  0  0  0  0  0  0  0
   29.0500   27.9600   35.1500 C   0  0  0  0  0  0  0  0  0  0  0  0
   30.3400   28.4900   35.2600 C   0  0  0  0  0  0  0  0  0  0  0  0
   31.1100   28.8200   34.1400 C   0  0  0  0  0  0  0  0  0  0  0  0
   30.5200   28.6700   32.8800 C   0  0  0  0  0  0  0  0  0  0  0  0
   29.2900   28.0200   32.7700 C   0  0  0  0  0  0  0  0  0  0  0  0
   28.5200   27.7100   33.8900 C   0  0  0  0  0  0  0  0  0  0  0  0
   27.2700   27.0800   33.7600 C   0  0  0  0  0  0  0  0  0  0  0  0
   26.7500   26.8800   32.4900 N   0  0  0  0  0  0  0  0  0  0  0  0
   23.8956   24.8417   36.5280 C   0  0  0  0  0  0  0  0  0  0  0  0
   23.0287   24.1424   35.6730 C   0  0  0  0  0  0  0  0  0  0  0  0
   22.4846   22.9139   36.0633 C   0  0  0  0  0  0  0  0  0  0  0  0
   21.4152   22.0302   34.9794 S   0  0  0  0  0  6  0  0  0  0  0  0
   21.8502   22.2455   33.5559 O   0  0  0  0  0  0  0  0  0  0  0  0
   21.4768   20.5557   35.2810 O   0  0  0  0  0  0  0  0  0  0  0  0
   19.7502   22.6159   35.1786 C   0  0  0  0  0  0  0  0  0  0  0  0
   22.7912   22.4074   37.3260 C   0  0  0  0  0  0  0  0  0  0  0  0
   23.6134   23.1015   38.1536 N   0  0  0  0  0  0  0  0  0  0  0  0
   24.1691   24.2924   37.7986 C   0  0  0  0  0  0  0  0  0  0  0  0
   25.0741   24.9869   38.7756 C   0  0  0  0  0  0  0  0  0  0  0  0
   24.5893   26.8321   36.8684 H   0  0  0  0  0  0  0  0  0  0  0  0
   30.7581   28.6622   36.2441 H   0  0  0  0  0  0  0  0  0  0  0  0
   32.0996   29.2451   34.2469 H   0  0  0  0  0  0  0  0  0  0  0  0
   31.0719   28.9438   31.9899 H   0  0  0  0  0  0  0  0  0  0  0  0
   28.9437   27.8126   31.7670 H   0  0  0  0  0  0  0  0  0  0  0  0
   26.7143   27.6571   31.7932 H   0  0  0  0  0  0  0  0  0  0  0  0
   26.3621   25.9527   32.2109 H   0  0  0  0  0  0  0  0  0  0  0  0
   22.7543   24.5572   34.7139 H   0  0  0  0  0  0  0  0  0  0  0  0
   19.0571   21.9871   34.5779 H   0  0  0  0  0  0  0  0  0  0  0  0
   19.6870   23.6644   34.8289 H   0  0  0  0  0  0  0  0  0  0  0  0
   19.4634   22.5690   36.2443 H   0  0  0  0  0  0  0  0  0  0  0  0
   22.3795   21.4623   37.6550 H   0  0  0  0  0  0  0  0  0  0  0  0
   24.5683   25.8932   39.1752 H   0  0  0  0  0  0  0  0  0  0  0  0
   25.3244   24.3127   39.6223 H   0  0  0  0  0  0  0  0  0  0  0  0
   26.0236   25.2812   38.2783 H   0  0  0  0  0  0  0  0  0  0  0  0
  1  2  1  0
  2  3  2  0
  2  4  1  0
  4  5  2  0
  5  6  1  0
  6  7  2  0
  7  8  1  0
  8  9  2  0
  9 10  1  0
 10 11  2  0
 11 12  1  0
 12 13  2  0
 13 14  1  0
  1 15  1  0
 15 16  2  0
 16 17  1  0
 17 18  1  0
 18 19  2  0
 18 20  2  0
 18 21  1  0
 17 22  2  0
 22 23  1  0
 23 24  2  0
 24 25  1  0
 13  4  1  0
 24 15  1  0
 12  7  1  0
  1 26  1  0
  8 27  1  0
  9 28  1  0
 10 29  1  0
 11 30  1  0
 14 31  1  0
 14 32  1  0
 16 33  1  0
 21 34  1  0
 21 35  1  0
 21 36  1  0
 22 37  1  0
 25 38  1  0
 25 39  1  0
 25 40  1  0
M  END
$$$$
