confid_0
     RDKit          3D

 44 47  0  0  0  0  0  0  0  0999 V2000
   25.3300   26.2600   34.7600 N   0  0  0  0  0  0  0  0  0  0  0  0
   26.1200   25.9200   33.6900 C   0  0  0  0  0  0  0  0  0  0  0  0
   25.6300   25.1100   32.9400 O   0  0  0  0  0  0  0  0  0  0  0  0
   27.5200   26.3800   33.4600 C   0  0  0  0  0  0  0  0  0  0  0  0
   28.1600   26.6300   34.6100 N   0  0  0  0  0  0  0  0  0  0  0  0
   29.4800   26.8500   34.5700 N   0  0  0  0  0  0  0  0  0  0  0  0
   30.1900   26.7800   33.4400 C   0  0  0  0  0  0  0  0  0  0  0  0
   31.5600   27.0500   33.5000 C   0  0  0  0  0  0  0  0  0  0  0  0
   32.2700   27.2400   32.3100 C   0  0  0  0  0  0  0  0  0  0  0  0
   31.6100   27.2500   31.0800 C   0  0  0  0  0  0  0  0  0  0  0  0
   30.2700   26.8700   31.0600 C   0  0  0  0  0  0  0  0  0  0  0  0
   29.5100   26.6900   32.2300 C   0  0  0  0  0  0  0  0  0  0  0  0
   28.1400   26.4100   32.2000 C   0  0  0  0  0  0  0  0  0  0  0  0
   27.4300   26.1300   31.0500 N   0  0  0  0  0  0  0  0  0  0  0  0
   24.1927   25.5047   35.2349 C   0  0  0  0  0  0  0  0  0  0  0  0
   24.0680   24.1852   34.9028 N   0  0  0  0  0  0  0  0  0  0  0  0
   23.0248   23.4529   35.3603 C   0  0  0  0  0  0  0  0  0  0  0  0
   22.7592   22.0332   35.0709 C   0  0  0  0  0  0  0  0  0  0  0  0
   21.5468   21.6952   35.8546 N   0  0  0  0  0  0  0  0  0  0  0  0
   20.5129   21.0765   35.0119 C   0  0  0  0  0  0  0  0  0  0  0  0
   21.0602   22.9479   36.4859 C   0  0  0  0  0  0  0  0  0  0  0  0
   22.0699   23.9853   36.1624 C   0  0  0  0  0  0  0  0  0  0  0  0
   22.1285   25.3314   36.5519 C   0  0  0  0  0  0  0  0  0  0  0  0
   23.2176   26.1072   36.0782 C   0  0  0  0  0  0  0  0  0  0  0  0
   23.3202   27.5061   36.4315 C   0  0  0  0  0  0  0  0  0  0  0  0
   23.4015   28.6253   36.7144 N   0  0  0  0  0  0  0  0  0  0  0  0
   21.0647   25.9345   37.4344 C   0  0  0  0  0  0  0  0  0  0  0  0
   25.6069   27.1200   35.2841 H   0  0  0  0  0  0  0  0  0  0  0  0
   32.0668   27.1425   34.4530 H   0  0  0  0  0  0  0  0  0  0  0  0
   33.3288   27.4608   32.3494 H   0  0  0  0  0  0  0  0  0  0  0  0
   32.1515   27.4335   30.1608 H   0  0  0  0  0  0  0  0  0  0  0  0
   29.8039   26.7906   30.0880 H   0  0  0  0  0  0  0  0  0  0  0  0
   26.8610   25.2625   30.9528 H   0  0  0  0  0  0  0  0  0  0  0  0
   27.5768   26.6941   30.1847 H   0  0  0  0  0  0  0  0  0  0  0  0
   22.6237   21.9003   33.9734 H   0  0  0  0  0  0  0  0  0  0  0  0
   23.6111   21.4119   35.4185 H   0  0  0  0  0  0  0  0  0  0  0  0
   20.1984   21.7614   34.1928 H   0  0  0  0  0  0  0  0  0  0  0  0
   19.6268   20.8186   35.6307 H   0  0  0  0  0  0  0  0  0  0  0  0
   20.9011   20.1341   34.5693 H   0  0  0  0  0  0  0  0  0  0  0  0
   21.0048   22.8050   37.5856 H   0  0  0  0  0  0  0  0  0  0  0  0
   20.0652   23.2700   36.1024 H   0  0  0  0  0  0  0  0  0  0  0  0
   21.5314   26.3476   38.3532 H   0  0  0  0  0  0  0  0  0  0  0  0
   20.3022   25.1907   37.7430 H   0  0  0  0  0  0  0  0  0  0  0  0
   20.5486   26.7522   36.8890 H   0  0  0  0  0  0  0  0  0  0  0  0
  1  2  1  0
  2  3  2  0
  2  4  1  0
  4  5  2  0
  5  6  1  0
  6  7  2  0
  7  8  1  0
  8  9  2  0
  9 10  1  0
 10 11  2  0
 11 12  1  0
 12 13  2  0
 13 14  1  0
  1 15  1  0
 15 16  2  0
 16 17  1  0
 17 18  1  0
 18 19  1  0
 19 20  1  0
 19 21  1  0
 21 22  1  0
 22 23  1  0
 23 24  2  0
 24 25  1  0
 25 26  3  0
 23 27  1  0
 13  4  1  0
 24 15  1  0
 12  7  1  0
 22 17  2  0
  1 28  1  0
  8 29  1  0
  9 30  1  0
 10 31  1  0
 11 32  1  0
 14 33  1  0
 14 34  1  0
 18 35  1  0
 18 36  1  0
 20 37  1  0
 20 38  1  0
 20 39  1  0
 21 40  1  0
 21 41  1  0
 27 42  1  0
 27 43  1  0
 27 44  1  0
M  END
$$$$
confid_1
     RDKit          3D

 44 47  0  0  0  0  0  0  0  0999 V2000
   25.3300   26.2600   34.7600 N   0  0  0  0  0  0  0  0  0  0  0  0
   26.1200   25.9200   33.6900 C   0  0  0  0  0  0  0  0  0  0  0  0
   25.6300   25.1100   32.9400 O   0  0  0  0  0  0  0  0  0  0  0  0
   27.5200   26.3800   33.4600 C   0  0  0  0  0  0  0  0  0  0  0  0
   28.1600   26.6300   34.6100 N   0  0  0  0  0  0  0  0  0  0  0  0
   29.4800   26.8500   34.5700 N   0  0  0  0  0  0  0  0  0  0  0  0
   30.1900   26.7800   33.4400 C   0  0  0  0  0  0  0  0  0  0  0  0
   31.5600   27.0500   33.5000 C   0  0  0  0  0  0  0  0  0  0  0  0
   32.2700   27.2400   32.3100 C   0  0  0  0  0  0  0  0  0  0  0  0
   31.6100   27.2500   31.0800 C   0  0  0  0  0  0  0  0  0  0  0  0
   30.2700   26.8700   31.0600 C   0  0  0  0  0  0  0  0  0  0  0  0
   29.5100   26.6900   32.2300 C   0  0  0  0  0  0  0  0  0  0  0  0
   28.1400   26.4100   32.2000 C   0  0  0  0  0  0  0  0  0  0  0  0
   27.4300   26.1300   31.0500 N   0  0  0  0  0  0  0  0  0  0  0  0
   24.1933   25.5042   35.2355 C   0  0  0  0  0  0  0  0  0  0  0  0
   24.0691   24.1846   34.9033 N   0  0  0  0  0  0  0  0  0  0  0  0
   23.0236   23.4532   35.3570 C   0  0  0  0  0  0  0  0  0  0  0  0
   22.7657   22.0297   35.0794 C   0  0  0  0  0  0  0  0  0  0  0  0
   21.4678   21.7347   35.7322 N   0  0  0  0  0  0  0  0  0  0  0  0
   21.5539   20.5492   36.5977 C   0  0  0  0  0  0  0  0  0  0  0  0
   21.0686   22.9431   36.4969 C   0  0  0  0  0  0  0  0  0  0  0  0
   22.0700   23.9846   36.1614 C   0  0  0  0  0  0  0  0  0  0  0  0
   22.1343   25.3277   36.5602 C   0  0  0  0  0  0  0  0  0  0  0  0
   23.2191   26.1059   36.0804 C   0  0  0  0  0  0  0  0  0  0  0  0
   23.3188   27.5060   36.4296 C   0  0  0  0  0  0  0  0  0  0  0  0
   23.3978   28.6262   36.7092 N   0  0  0  0  0  0  0  0  0  0  0  0
   21.0706   25.9286   37.4443 C   0  0  0  0  0  0  0  0  0  0  0  0
   25.6068   27.1200   35.2840 H   0  0  0  0  0  0  0  0  0  0  0  0
   32.0668   27.1425   34.4530 H   0  0  0  0  0  0  0  0  0  0  0  0
   33.3288   27.4608   32.3494 H   0  0  0  0  0  0  0  0  0  0  0  0
   32.1515   27.4335   30.1608 H   0  0  0  0  0  0  0  0  0  0  0  0
   29.8039   26.7906   30.0880 H   0  0  0  0  0  0  0  0  0  0  0  0
   27.5767   26.6942   30.1848 H   0  0  0  0  0  0  0  0  0  0  0  0
   26.8611   25.2624   30.9527 H   0  0  0  0  0  0  0  0  0  0  0  0
   22.6760   21.8689   33.9845 H   0  0  0  0  0  0  0  0  0  0  0  0
   23.6067   21.4190   35.4795 H   0  0  0  0  0  0  0  0  0  0  0  0
   21.8364   19.6607   35.9932 H   0  0  0  0  0  0  0  0  0  0  0  0
   22.3059   20.6943   37.4055 H   0  0  0  0  0  0  0  0  0  0  0  0
   20.5628   20.3445   37.0563 H   0  0  0  0  0  0  0  0  0  0  0  0
   21.0649   22.7775   37.5984 H   0  0  0  0  0  0  0  0  0  0  0  0
   20.0595   23.2688   36.1671 H   0  0  0  0  0  0  0  0  0  0  0  0
   20.3591   25.1663   37.8223 H   0  0  0  0  0  0  0  0  0  0  0  0
   21.5424   26.4154   38.3236 H   0  0  0  0  0  0  0  0  0  0  0  0
   20.4980   26.6878   36.8713 H   0  0  0  0  0  0  0  0  0  0  0  0
  1  2  1  0
  2  3  2  0
  2  4  1  0
  4  5  2  0
  5  6  1  0
  6  7  2  0
  7  8  1  0
  8  9  2  0
  9 10  1  0
 10 11  2  0
 11 12  1  0
 12 13  2  0
 13 14  1  0
  1 15  1  0
 15 16  2  0
 16 17  1  0
 17 18  1  0
 18 19  1  0
 19 20  1  0
 19 21  1  0
 21 22  1  0
 22 23  1  0
 23 24  2  0
 24 25  1  0
 25 26  3  0
 23 27  1  0
 13  4  1  0
 24 15  1  0
 12  7  1  0
 22 17  2  0
  1 28  1  0
  8 29  1  0
  9 30  1  0
 10 31  1  0
 11 32  1  0
 14 33  1  0
 14 34  1  0
 18 35  1  0
 18 36  1  0
 20 37  1  0
 20 38  1  0
 20 39  1  0
 21 40  1  0
 21 41  1  0
 27 42  1  0
 27 43  1  0
 27 44  1  0
M  END
$$$$
confid_2
     RDKit          3D

 44 47  0  0  0  0  0  0  0  0999 V2000
   25.3300   26.2600   34.7600 N   0  0  0  0  0  0  0  0  0  0  0  0
   26.1200   25.9200   33.6900 C   0  0  0  0  0  0  0  0  0  0  0  0
   25.6300   25.1100   32.9400 O   0  0  0  0  0  0  0  0  0  0  0  0
   27.5200   26.3800   33.4600 C   0  0  0  0  0  0  0  0  0  0  0  0
   28.1600   26.6300   34.6100 N   0  0  0  0  0  0  0  0  0  0  0  0
   29.4800   26.8500   34.5700 N   0  0  0  0  0  0  0  0  0  0  0  0
   30.1900   26.7800   33.4400 C   0  0  0  0  0  0  0  0  0  0  0  0
   31.5600   27.0500   33.5000 C   0  0  0  0  0  0  0  0  0  0  0  0
   32.2700   27.2400   32.3100 C   0  0  0  0  0  0  0  0  0  0  0  0
   31.6100   27.2500   31.0800 C   0  0  0  0  0  0  0  0  0  0  0  0
   30.2700   26.8700   31.0600 C   0  0  0  0  0  0  0  0  0  0  0  0
   29.5100   26.6900   32.2300 C   0  0  0  0  0  0  0  0  0  0  0  0
   28.1400   26.4100   32.2000 C   0  0  0  0  0  0  0  0  0  0  0  0
   27.4300   26.1300   31.0500 N   0  0  0  0  0  0  0  0  0  0  0  0
   23.8949   26.0975   34.8140 C   0  0  0  0  0  0  0  0  0  0  0  0
   23.1844   25.9570   33.6553 N   0  0  0  0  0  0  0  0  0  0  0  0
   21.8370   25.8251   33.6828 C   0  0  0  0  0  0  0  0  0  0  0  0
   20.9495   25.6662   32.5178 C   0  0  0  0  0  0  0  0  0  0  0  0
   19.5921   25.4821   33.0848 N   0  0  0  0  0  0  0  0  0  0  0  0
   18.6212   26.4031   32.4757 C   0  0  0  0  0  0  0  0  0  0  0  0
   19.6910   25.6829   34.5525 C   0  0  0  0  0  0  0  0  0  0  0  0
   21.1371   25.8381   34.8441 C   0  0  0  0  0  0  0  0  0  0  0  0
   21.7915   25.9932   36.0749 C   0  0  0  0  0  0  0  0  0  0  0  0
   23.2044   26.1196   36.0580 C   0  0  0  0  0  0  0  0  0  0  0  0
   23.9375   26.2450   37.2986 C   0  0  0  0  0  0  0  0  0  0  0  0
   24.5235   26.3451   38.2916 N   0  0  0  0  0  0  0  0  0  0  0  0
   21.0208   25.9943   37.3712 C   0  0  0  0  0  0  0  0  0  0  0  0
   25.7978   26.7322   35.5652 H   0  0  0  0  0  0  0  0  0  0  0  0
   32.0668   27.1425   34.4530 H   0  0  0  0  0  0  0  0  0  0  0  0
   33.3288   27.4608   32.3494 H   0  0  0  0  0  0  0  0  0  0  0  0
   32.1515   27.4335   30.1608 H   0  0  0  0  0  0  0  0  0  0  0  0
   29.8039   26.7906   30.0880 H   0  0  0  0  0  0  0  0  0  0  0  0
   26.8601   25.2631   30.9529 H   0  0  0  0  0  0  0  0  0  0  0  0
   27.5769   26.6940   30.1847 H   0  0  0  0  0  0  0  0  0  0  0  0
   21.0342   26.5653   31.8660 H   0  0  0  0  0  0  0  0  0  0  0  0
   21.2385   24.7609   31.9439 H   0  0  0  0  0  0  0  0  0  0  0  0
   18.9109   27.4642   32.6467 H   0  0  0  0  0  0  0  0  0  0  0  0
   18.5578   26.2151   31.3824 H   0  0  0  0  0  0  0  0  0  0  0  0
   17.6127   26.2274   32.9076 H   0  0  0  0  0  0  0  0  0  0  0  0
   19.1456   26.5883   34.9039 H   0  0  0  0  0  0  0  0  0  0  0  0
   19.2947   24.7856   35.0728 H   0  0  0  0  0  0  0  0  0  0  0  0
   21.2778   25.0861   37.9556 H   0  0  0  0  0  0  0  0  0  0  0  0
   19.9240   26.0059   37.2071 H   0  0  0  0  0  0  0  0  0  0  0  0
   21.2827   26.8955   37.9645 H   0  0  0  0  0  0  0  0  0  0  0  0
  1  2  1  0
  2  3  2  0
  2  4  1  0
  4  5  2  0
  5  6  1  0
  6  7  2  0
  7  8  1  0
  8  9  2  0
  9 10  1  0
 10 11  2  0
 11 12  1  0
 12 13  2  0
 13 14  1  0
  1 15  1  0
 15 16  2  0
 16 17  1  0
 17 18  1  0
 18 19  1  0
 19 20  1  0
 19 21  1  0
 21 22  1  0
 22 23  1  0
 23 24  2  0
 24 25  1  0
 25 26  3  0
 23 27  1  0
 13  4  1  0
 24 15  1  0
 12  7  1  0
 22 17  2  0
  1 28  1  0
  8 29  1  0
  9 30  1  0
 10 31  1  0
 11 32  1  0
 14 33  1  0
 14 34  1  0
 18 35  1  0
 18 36  1  0
 20 37  1  0
 20 38  1  0
 20 39  1  0
 21 40  1  0
 21 41  1  0
 27 42  1  0
 27 43  1  0
 27 44  1  0
M  END
$$$$
confid_3
     RDKit          3D

 44 47  0  0  0  0  0  0  0  0999 V2000
   25.3300   26.2600   34.7600 N   0  0  0  0  0  0  0  0  0  0  0  0
   26.1200   25.9200   33.6900 C   0  0  0  0  0  0  0  0  0  0  0  0
   25.6300   25.1100   32.9400 O   0  0  0  0  0  0  0  0  0  0  0  0
   27.5200   26.3800   33.4600 C   0  0  0  0  0  0  0  0  0  0  0  0
   28.1600   26.6300   34.6100 N   0  0  0  0  0  0  0  0  0  0  0  0
   29.4800   26.8500   34.5700 N   0  0  0  0  0  0  0  0  0  0  0  0
   30.1900   26.7800   33.4400 C   0  0  0  0  0  0  0  0  0  0  0  0
   31.5600   27.0500   33.5000 C   0  0  0  0  0  0  0  0  0  0  0  0
   32.2700   27.2400   32.3100 C   0  0  0  0  0  0  0  0  0  0  0  0
   31.6100   27.2500   31.0800 C   0  0  0  0  0  0  0  0  0  0  0  0
   30.2700   26.8700   31.0600 C   0  0  0  0  0  0  0  0  0  0  0  0
   29.5100   26.6900   32.2300 C   0  0  0  0  0  0  0  0  0  0  0  0
   28.1400   26.4100   32.2000 C   0  0  0  0  0  0  0  0  0  0  0  0
   27.4300   26.1300   31.0500 N   0  0  0  0  0  0  0  0  0  0  0  0
   23.8949   26.0976   34.8140 C   0  0  0  0  0  0  0  0  0  0  0  0
   23.1845   25.9567   33.6552 N   0  0  0  0  0  0  0  0  0  0  0  0
   21.8365   25.8298   33.6823 C   0  0  0  0  0  0  0  0  0  0  0  0
   20.9510   25.6556   32.5181 C   0  0  0  0  0  0  0  0  0  0  0  0
   19.5764   25.6317   33.0732 N   0  0  0  0  0  0  0  0  0  0  0  0
   18.8302   24.4487   32.6195 C   0  0  0  0  0  0  0  0  0  0  0  0
   19.6921   25.6707   34.5530 C   0  0  0  0  0  0  0  0  0  0  0  0
   21.1367   25.8408   34.8437 C   0  0  0  0  0  0  0  0  0  0  0  0
   21.7922   25.9857   36.0752 C   0  0  0  0  0  0  0  0  0  0  0  0
   23.2045   26.1183   36.0580 C   0  0  0  0  0  0  0  0  0  0  0  0
   23.9369   26.2475   37.2985 C   0  0  0  0  0  0  0  0  0  0  0  0
   24.5224   26.3507   38.2914 N   0  0  0  0  0  0  0  0  0  0  0  0
   21.0230   25.9841   37.3723 C   0  0  0  0  0  0  0  0  0  0  0  0
   25.7978   26.7320   35.5653 H   0  0  0  0  0  0  0  0  0  0  0  0
   32.0668   27.1425   34.4530 H   0  0  0  0  0  0  0  0  0  0  0  0
   33.3288   27.4608   32.3494 H   0  0  0  0  0  0  0  0  0  0  0  0
   32.1515   27.4335   30.1608 H   0  0  0  0  0  0  0  0  0  0  0  0
   29.8039   26.7906   30.0880 H   0  0  0  0  0  0  0  0  0  0  0  0
   27.5769   26.6940   30.1847 H   0  0  0  0  0  0  0  0  0  0  0  0
   26.8601   25.2631   30.9529 H   0  0  0  0  0  0  0  0  0  0  0  0
   21.2252   24.7175   31.9840 H   0  0  0  0  0  0  0  0  0  0  0  0
   21.0586   26.5203   31.8302 H   0  0  0  0  0  0  0  0  0  0  0  0
   17.8006   24.4695   33.0367 H   0  0  0  0  0  0  0  0  0  0  0  0
   18.7456   24.4581   31.5117 H   0  0  0  0  0  0  0  0  0  0  0  0
   19.3338   23.5087   32.9386 H   0  0  0  0  0  0  0  0  0  0  0  0
   19.3248   24.7400   35.0427 H   0  0  0  0  0  0  0  0  0  0  0  0
   19.1238   26.5423   34.9407 H   0  0  0  0  0  0  0  0  0  0  0  0
   21.2326   26.9193   37.9329 H   0  0  0  0  0  0  0  0  0  0  0  0
   21.3336   25.1136   37.9874 H   0  0  0  0  0  0  0  0  0  0  0  0
   19.9275   25.9210   37.2120 H   0  0  0  0  0  0  0  0  0  0  0  0
  1  2  1  0
  2  3  2  0
  2  4  1  0
  4  5  2  0
  5  6  1  0
  6  7  2  0
  7  8  1  0
  8  9  2  0
  9 10  1  0
 10 11  2  0
 11 12  1  0
 12 13  2  0
 13 14  1  0
  1 15  1  0
 15 16  2  0
 16 17  1  0
 17 18  1  0
 18 19  1  0
 19 20  1  0
 19 21  1  0
 21 22  1  0
 22 23  1  0
 23 24  2  0
 24 25  1  0
 25 26  3  0
 23 27  1  0
 13  4  1  0
 24 15  1  0
 12  7  1  0
 22 17  2  0
  1 28  1  0
  8 29  1  0
  9 30  1  0
 10 31  1  0
 11 32  1  0
 14 33  1  0
 14 34  1  0
 18 35  1  0
 18 36  1  0
 20 37  1  0
 20 38  1  0
 20 39  1  0
 21 40  1  0
 21 41  1  0
 27 42  1  0
 27 43  1  0
 27 44  1  0
M  END
$$$$
confid_4
     RDKit          3D

 44 47  0  0  0  0  0  0  0  0999 V2000
   25.3300   26.2600   34.7600 N   0  0  0  0  0  0  0  0  0  0  0  0
   26.1200   25.9200   33.6900 C   0  0  0  0  0  0  0  0  0  0  0  0
   25.6300   25.1100   32.9400 O   0  0  0  0  0  0  0  0  0  0  0  0
   27.5200   26.3800   33.4600 C   0  0  0  0  0  0  0  0  0  0  0  0
   28.1600   26.6300   34.6100 N   0  0  0  0  0  0  0  0  0  0  0  0
   29.4800   26.8500   34.5700 N   0  0  0  0  0  0  0  0  0  0  0  0
   30.1900   26.7800   33.4400 C   0  0  0  0  0  0  0  0  0  0  0  0
   31.5600   27.0500   33.5000 C   0  0  0  0  0  0  0  0  0  0  0  0
   32.2700   27.2400   32.3100 C   0  0  0  0  0  0  0  0  0  0  0  0
   31.6100   27.2500   31.0800 C   0  0  0  0  0  0  0  0  0  0  0  0
   30.2700   26.8700   31.0600 C   0  0  0  0  0  0  0  0  0  0  0  0
   29.5100   26.6900   32.2300 C   0  0  0  0  0  0  0  0  0  0  0  0
   28.1400   26.4100   32.2000 C   0  0  0  0  0  0  0  0  0  0  0  0
   27.4300   26.1300   31.0500 N   0  0  0  0  0  0  0  0  0  0  0  0
   24.1152   25.5840   35.1289 C   0  0  0  0  0  0  0  0  0  0  0  0
   22.9757   26.3208   35.2650 N   0  0  0  0  0  0  0  0  0  0  0  0
   21.8127   25.7262   35.6244 C   0  0  0  0  0  0  0  0  0  0  0  0
   20.5154   26.3936   35.8280 C   0  0  0  0  0  0  0  0  0  0  0  0
   19.5659   25.3069   36.1690 N   0  0  0  0  0  0  0  0  0  0  0  0
   18.8377   25.5955   37.4133 C   0  0  0  0  0  0  0  0  0  0  0  0
   20.3464   24.0480   36.2721 C   0  0  0  0  0  0  0  0  0  0  0  0
   21.7321   24.3947   35.8725 C   0  0  0  0  0  0  0  0  0  0  0  0
   22.8661   23.5747   35.7734 C   0  0  0  0  0  0  0  0  0  0  0  0
   24.0922   24.1898   35.4122 C   0  0  0  0  0  0  0  0  0  0  0  0
   25.3185   23.4227   35.4002 C   0  0  0  0  0  0  0  0  0  0  0  0
   26.2998   22.8091   35.3912 N   0  0  0  0  0  0  0  0  0  0  0  0
   22.7927   22.1077   36.1139 C   0  0  0  0  0  0  0  0  0  0  0  0
   25.5407   27.1600   35.2470 H   0  0  0  0  0  0  0  0  0  0  0  0
   32.0668   27.1425   34.4530 H   0  0  0  0  0  0  0  0  0  0  0  0
   33.3288   27.4608   32.3494 H   0  0  0  0  0  0  0  0  0  0  0  0
   32.1515   27.4335   30.1608 H   0  0  0  0  0  0  0  0  0  0  0  0
   29.8039   26.7906   30.0880 H   0  0  0  0  0  0  0  0  0  0  0  0
   27.5768   26.6941   30.1847 H   0  0  0  0  0  0  0  0  0  0  0  0
   26.8611   25.2625   30.9528 H   0  0  0  0  0  0  0  0  0  0  0  0
   20.1934   26.8863   34.8867 H   0  0  0  0  0  0  0  0  0  0  0  0
   20.6161   27.1569   36.6329 H   0  0  0  0  0  0  0  0  0  0  0  0
   18.2506   26.5318   37.2984 H   0  0  0  0  0  0  0  0  0  0  0  0
   18.1224   24.7735   37.6309 H   0  0  0  0  0  0  0  0  0  0  0  0
   19.5370   25.7068   38.2721 H   0  0  0  0  0  0  0  0  0  0  0  0
   19.9263   23.2999   35.5673 H   0  0  0  0  0  0  0  0  0  0  0  0
   20.3550   23.6238   37.3020 H   0  0  0  0  0  0  0  0  0  0  0  0
   23.2468   21.9371   37.1123 H   0  0  0  0  0  0  0  0  0  0  0  0
   21.7467   21.7388   36.1315 H   0  0  0  0  0  0  0  0  0  0  0  0
   23.3420   21.5106   35.3560 H   0  0  0  0  0  0  0  0  0  0  0  0
  1  2  1  0
  2  3  2  0
  2  4  1  0
  4  5  2  0
  5  6  1  0
  6  7  2  0
  7  8  1  0
  8  9  2  0
  9 10  1  0
 10 11  2  0
 11 12  1  0
 12 13  2  0
 13 14  1  0
  1 15  1  0
 15 16  2  0
 16 17  1  0
 17 18  1  0
 18 19  1  0
 19 20  1  0
 19 21  1  0
 21 22  1  0
 22 23  1  0
 23 24  2  0
 24 25  1  0
 25 26  3  0
 23 27  1  0
 13  4  1  0
 24 15  1  0
 12  7  1  0
 22 17  2  0
  1 28  1  0
  8 29  1  0
  9 30  1  0
 10 31  1  0
 11 32  1  0
 14 33  1  0
 14 34  1  0
 18 35  1  0
 18 36  1  0
 20 37  1  0
 20 38  1  0
 20 39  1  0
 21 40  1  0
 21 41  1  0
 27 42  1  0
 27 43  1  0
 27 44  1  0
M  END
$$$$
confid_5
     RDKit          3D

 44 47  0  0  0  0  0  0  0  0999 V2000
   25.3300   26.2600   34.7600 N   0  0  0  0  0  0  0  0  0  0  0  0
   26.1200   25.9200   33.6900 C   0  0  0  0  0  0  0  0  0  0  0  0
   25.6300   25.1100   32.9400 O   0  0  0  0  0  0  0  0  0  0  0  0
   27.5200   26.3800   33.4600 C   0  0  0  0  0  0  0  0  0  0  0  0
   28.1600   26.6300   34.6100 N   0  0  0  0  0  0  0  0  0  0  0  0
   29.4800   26.8500   34.5700 N   0  0  0  0  0  0  0  0  0  0  0  0
   30.1900   26.7800   33.4400 C   0  0  0  0  0  0  0  0  0  0  0  0
   31.5600   27.0500   33.5000 C   0  0  0  0  0  0  0  0  0  0  0  0
   32.2700   27.2400   32.3100 C   0  0  0  0  0  0  0  0  0  0  0  0
   31.6100   27.2500   31.0800 C   0  0  0  0  0  0  0  0  0  0  0  0
   30.2700   26.8700   31.0600 C   0  0  0  0  0  0  0  0  0  0  0  0
   29.5100   26.6900   32.2300 C   0  0  0  0  0  0  0  0  0  0  0  0
   28.1400   26.4100   32.2000 C   0  0  0  0  0  0  0  0  0  0  0  0
   27.4300   26.1300   31.0500 N   0  0  0  0  0  0  0  0  0  0  0  0
   24.0303   25.7026   35.0682 C   0  0  0  0  0  0  0  0  0  0  0  0
   23.6934   24.4608   34.6060 N   0  0  0  0  0  0  0  0  0  0  0  0
   22.4867   23.9169   34.8943 C   0  0  0  0  0  0  0  0  0  0  0  0
   21.9964   22.5954   34.4635 C   0  0  0  0  0  0  0  0  0  0  0  0
   20.6583   22.4523   35.0844 N   0  0  0  0  0  0  0  0  0  0  0  0
   19.6300   22.1159   34.0861 C   0  0  0  0  0  0  0  0  0  0  0  0
   20.3519   23.7301   35.7785 C   0  0  0  0  0  0  0  0  0  0  0  0
   21.5676   24.5693   35.6460 C   0  0  0  0  0  0  0  0  0  0  0  0
   21.8369   25.8473   36.1619 C   0  0  0  0  0  0  0  0  0  0  0  0
   23.1030   26.4204   35.8754 C   0  0  0  0  0  0  0  0  0  0  0  0
   23.4365   27.7338   36.3831 C   0  0  0  0  0  0  0  0  0  0  0  0
   23.7026   28.7846   36.7900 N   0  0  0  0  0  0  0  0  0  0  0  0
   20.8279   26.5673   37.0218 C   0  0  0  0  0  0  0  0  0  0  0  0
   25.6923   27.0233   35.3743 H   0  0  0  0  0  0  0  0  0  0  0  0
   32.0668   27.1425   34.4529 H   0  0  0  0  0  0  0  0  0  0  0  0
   33.3289   27.4608   32.3494 H   0  0  0  0  0  0  0  0  0  0  0  0
   32.1516   27.4334   30.1608 H   0  0  0  0  0  0  0  0  0  0  0  0
   29.8041   26.7903   30.0879 H   0  0  0  0  0  0  0  0  0  0  0  0
   27.5772   26.6937   30.1844 H   0  0  0  0  0  0  0  0  0  0  0  0
   26.8607   25.2627   30.9530 H   0  0  0  0  0  0  0  0  0  0  0  0
   21.9719   22.5536   33.3516 H   0  0  0  0  0  0  0  0  0  0  0  0
   22.6697   21.8018   34.8491 H   0  0  0  0  0  0  0  0  0  0  0  0
   19.8713   21.1414   33.6075 H   0  0  0  0  0  0  0  0  0  0  0  0
   18.6423   22.0094   34.5828 H   0  0  0  0  0  0  0  0  0  0  0  0
   19.5595   22.9017   33.2993 H   0  0  0  0  0  0  0  0  0  0  0  0
   19.4821   24.2674   35.3343 H   0  0  0  0  0  0  0  0  0  0  0  0
   20.1521   23.5252   36.8519 H   0  0  0  0  0  0  0  0  0  0  0  0
   21.2016   26.6151   38.0647 H   0  0  0  0  0  0  0  0  0  0  0  0
   19.8396   26.0629   37.0269 H   0  0  0  0  0  0  0  0  0  0  0  0
   20.6730   27.5979   36.6418 H   0  0  0  0  0  0  0  0  0  0  0  0
  1  2  1  0
  2  3  2  0
  2  4  1  0
  4  5  2  0
  5  6  1  0
  6  7  2  0
  7  8  1  0
  8  9  2  0
  9 10  1  0
 10 11  2  0
 11 12  1  0
 12 13  2  0
 13 14  1  0
  1 15  1  0
 15 16  2  0
 16 17  1  0
 17 18  1  0
 18 19  1  0
 19 20  1  0
 19 21  1  0
 21 22  1  0
 22 23  1  0
 23 24  2  0
 24 25  1  0
 25 26  3  0
 23 27  1  0
 13  4  1  0
 24 15  1  0
 12  7  1  0
 22 17  2  0
  1 28  1  0
  8 29  1  0
  9 30  1  0
 10 31  1  0
 11 32  1  0
 14 33  1  0
 14 34  1  0
 18 35  1  0
 18 36  1  0
 20 37  1  0
 20 38  1  0
 20 39  1  0
 21 40  1  0
 21 41  1  0
 27 42  1  0
 27 43  1  0
 27 44  1  0
M  END
$$$$
confid_6
     RDKit          3D

 44 47  0  0  0  0  0  0  0  0999 V2000
   25.3300   26.2600   34.7600 N   0  0  0  0  0  0  0  0  0  0  0  0
   26.1200   25.9200   33.6900 C   0  0  0  0  0  0  0  0  0  0  0  0
   25.6300   25.1100   32.9400 O   0  0  0  0  0  0  0  0  0  0  0  0
   27.5200   26.3800   33.4600 C   0  0  0  0  0  0  0  0  0  0  0  0
   28.1600   26.6300   34.6100 N   0  0  0  0  0  0  0  0  0  0  0  0
   29.4800   26.8500   34.5700 N   0  0  0  0  0  0  0  0  0  0  0  0
   30.1900   26.7800   33.4400 C   0  0  0  0  0  0  0  0  0  0  0  0
   31.5600   27.0500   33.5000 C   0  0  0  0  0  0  0  0  0  0  0  0
   32.2700   27.2400   32.3100 C   0  0  0  0  0  0  0  0  0  0  0  0
   31.6100   27.2500   31.0800 C   0  0  0  0  0  0  0  0  0  0  0  0
   30.2700   26.8700   31.0600 C   0  0  0  0  0  0  0  0  0  0  0  0
   29.5100   26.6900   32.2300 C   0  0  0  0  0  0  0  0  0  0  0  0
   28.1400   26.4100   32.2000 C   0  0  0  0  0  0  0  0  0  0  0  0
   27.4300   26.1300   31.0500 N   0  0  0  0  0  0  0  0  0  0  0  0
   25.2380   25.4245   35.9308 C   0  0  0  0  0  0  0  0  0  0  0  0
   25.6800   24.1324   35.8698 N   0  0  0  0  0  0  0  0  0  0  0  0
   25.5888   23.3210   36.9507 C   0  0  0  0  0  0  0  0  0  0  0  0
   25.9607   21.8964   37.0121 C   0  0  0  0  0  0  0  0  0  0  0  0
   25.5098   21.4284   38.3460 N   0  0  0  0  0  0  0  0  0  0  0  0
   26.6026   20.7859   39.0945 C   0  0  0  0  0  0  0  0  0  0  0  0
   24.9712   22.6082   39.0756 C   0  0  0  0  0  0  0  0  0  0  0  0
   25.0320   23.7389   38.1171 C   0  0  0  0  0  0  0  0  0  0  0  0
   24.5864   25.0580   38.2697 C   0  0  0  0  0  0  0  0  0  0  0  0
   24.6846   25.9214   37.1456 C   0  0  0  0  0  0  0  0  0  0  0  0
   24.2371   27.2947   37.2299 C   0  0  0  0  0  0  0  0  0  0  0  0
   23.8806   28.3920   37.2973 N   0  0  0  0  0  0  0  0  0  0  0  0
   23.9311   25.4928   39.5596 C   0  0  0  0  0  0  0  0  0  0  0  0
   24.8797   27.2027   34.7352 H   0  0  0  0  0  0  0  0  0  0  0  0
   32.0673   27.1436   34.4532 H   0  0  0  0  0  0  0  0  0  0  0  0
   33.3281   27.4628   32.3487 H   0  0  0  0  0  0  0  0  0  0  0  0
   32.1497   27.4427   30.1609 H   0  0  0  0  0  0  0  0  0  0  0  0
   29.7986   26.8225   30.0882 H   0  0  0  0  0  0  0  0  0  0  0  0
   26.4150   26.3583   30.9712 H   0  0  0  0  0  0  0  0  0  0  0  0
   27.8900   25.7007   30.2162 H   0  0  0  0  0  0  0  0  0  0  0  0
   25.4181   21.3355   36.2236 H   0  0  0  0  0  0  0  0  0  0  0  0
   27.0596   21.7957   36.8561 H   0  0  0  0  0  0  0  0  0  0  0  0
   26.2120   20.3966   40.0596 H   0  0  0  0  0  0  0  0  0  0  0  0
   27.0028   19.9193   38.5216 H   0  0  0  0  0  0  0  0  0  0  0  0
   27.4317   21.5038   39.2950 H   0  0  0  0  0  0  0  0  0  0  0  0
   23.9098   22.4160   39.3555 H   0  0  0  0  0  0  0  0  0  0  0  0
   25.5559   22.8620   39.9921 H   0  0  0  0  0  0  0  0  0  0  0  0
   22.8344   25.3138   39.4874 H   0  0  0  0  0  0  0  0  0  0  0  0
   24.3423   24.9232   40.4184 H   0  0  0  0  0  0  0  0  0  0  0  0
   24.1194   26.5707   39.7675 H   0  0  0  0  0  0  0  0  0  0  0  0
  1  2  1  0
  2  3  2  0
  2  4  1  0
  4  5  2  0
  5  6  1  0
  6  7  2  0
  7  8  1  0
  8  9  2  0
  9 10  1  0
 10 11  2  0
 11 12  1  0
 12 13  2  0
 13 14  1  0
  1 15  1  0
 15 16  2  0
 16 17  1  0
 17 18  1  0
 18 19  1  0
 19 20  1  0
 19 21  1  0
 21 22  1  0
 22 23  1  0
 23 24  2  0
 24 25  1  0
 25 26  3  0
 23 27  1  0
 13  4  1  0
 24 15  1  0
 12  7  1  0
 22 17  2  0
  1 28  1  0
  8 29  1  0
  9 30  1  0
 10 31  1  0
 11 32  1  0
 14 33  1  0
 14 34  1  0
 18 35  1  0
 18 36  1  0
 20 37  1  0
 20 38  1  0
 20 39  1  0
 21 40  1  0
 21 41  1  0
 27 42  1  0
 27 43  1  0
 27 44  1  0
M  END
$$$$
