confid_0
     RDKit          3D

 45 48  0  0  0  0  0  0  0  0999 V2000
   24.4800   26.1000   36.1300 N   0  0  0  0  0  0  0  0  0  0  0  0
   25.2500   26.2500   34.9900 C   0  0  0  0  0  0  0  0  0  0  0  0
   24.7400   25.7600   33.9900 O   0  0  0  0  0  0  0  0  0  0  0  0
   26.5900   26.8900   34.9600 C   0  0  0  0  0  0  0  0  0  0  0  0
   27.0600   27.2400   36.1600 N   0  0  0  0  0  0  0  0  0  0  0  0
   28.3000   27.7100   36.2400 N   0  0  0  0  0  0  0  0  0  0  0  0
   29.0500   27.9600   35.1500 C   0  0  0  0  0  0  0  0  0  0  0  0
   30.3400   28.4900   35.2600 C   0  0  0  0  0  0  0  0  0  0  0  0
   31.1100   28.8200   34.1400 C   0  0  0  0  0  0  0  0  0  0  0  0
   30.5200   28.6700   32.8800 C   0  0  0  0  0  0  0  0  0  0  0  0
   29.2900   28.0200   32.7700 C   0  0  0  0  0  0  0  0  0  0  0  0
   28.5200   27.7100   33.8900 C   0  0  0  0  0  0  0  0  0  0  0  0
   27.2700   27.0800   33.7600 C   0  0  0  0  0  0  0  0  0  0  0  0
   26.7500   26.8800   32.4900 N   0  0  0  0  0  0  0  0  0  0  0  0
   23.4732   25.0816   36.3059 C   0  0  0  0  0  0  0  0  0  0  0  0
   23.6053   23.8974   35.6502 N   0  0  0  0  0  0  0  0  0  0  0  0
   22.7340   22.8736   35.8113 C   0  0  0  0  0  0  0  0  0  0  0  0
   21.6769   22.9831   36.7182 C   0  0  0  0  0  0  0  0  0  0  0  0
   20.6918   21.8523   36.8457 C   0  0  0  0  0  0  0  0  0  0  0  0
   20.1202   21.7951   38.2258 C   0  0  0  0  0  0  0  0  0  0  0  0
   19.7224   20.6901   38.6855 O   0  0  0  0  0  0  0  0  0  0  0  0
   19.9885   22.9975   39.0024 N   0  0  0  0  0  0  0  0  0  0  0  0
   20.3557   24.2977   38.4236 C   0  0  0  0  0  0  0  0  0  0  0  0
   21.5080   24.1831   37.4403 C   0  0  0  0  0  0  0  0  0  0  0  0
   22.3795   25.2757   37.1843 C   0  0  0  0  0  0  0  0  0  0  0  0
   22.1558   26.6224   37.8352 C   0  0  0  0  0  0  0  0  0  0  0  0
   19.3542   22.9393   40.3219 C   0  0  0  0  0  0  0  0  0  0  0  0
   24.6958   26.7177   36.9440 H   0  0  0  0  0  0  0  0  0  0  0  0
   30.7582   28.6623   36.2441 H   0  0  0  0  0  0  0  0  0  0  0  0
   32.0994   29.2455   34.2469 H   0  0  0  0  0  0  0  0  0  0  0  0
   31.0716   28.9442   31.9898 H   0  0  0  0  0  0  0  0  0  0  0  0
   28.9437   27.8128   31.7669 H   0  0  0  0  0  0  0  0  0  0  0  0
   26.7156   27.6566   31.7926 H   0  0  0  0  0  0  0  0  0  0  0  0
   26.3617   25.9528   32.2110 H   0  0  0  0  0  0  0  0  0  0  0  0
   22.8767   21.9655   35.2396 H   0  0  0  0  0  0  0  0  0  0  0  0
   21.1863   20.8826   36.6167 H   0  0  0  0  0  0  0  0  0  0  0  0
   19.8665   22.0072   36.1192 H   0  0  0  0  0  0  0  0  0  0  0  0
   20.6381   24.9841   39.2496 H   0  0  0  0  0  0  0  0  0  0  0  0
   19.4747   24.7223   37.8971 H   0  0  0  0  0  0  0  0  0  0  0  0
   22.6533   26.6459   38.8271 H   0  0  0  0  0  0  0  0  0  0  0  0
   21.0738   26.8354   37.9564 H   0  0  0  0  0  0  0  0  0  0  0  0
   22.5477   27.4482   37.2063 H   0  0  0  0  0  0  0  0  0  0  0  0
   18.3423   22.4900   40.2339 H   0  0  0  0  0  0  0  0  0  0  0  0
   19.9723   22.3206   41.0060 H   0  0  0  0  0  0  0  0  0  0  0  0
   19.2444   23.9521   40.7644 H   0  0  0  0  0  0  0  0  0  0  0  0
  1  2  1  0
  2  3  2  0
  2  4  1  0
  4  5  2  0
  5  6  1  0
  6  7  2  0
  7  8  1  0
  8  9  2  0
  9 10  1  0
 10 11  2  0
 11 12  1  0
 12 13  2  0
 13 14  1  0
  1 15  1  0
 15 16  2  0
 16 17  1  0
 17 18  2  0
 18 19  1  0
 19 20  1  0
 20 21  2  0
 20 22  1  0
 22 23  1  0
 23 24  1  0
 24 25  2  0
 25 26  1  0
 22 27  1  0
 13  4  1  0
 25 15  1  0
 12  7  1  0
 24 18  1  0
  1 28  1  0
  8 29  1  0
  9 30  1  0
 10 31  1  0
 11 32  1  0
 14 33  1  0
 14 34  1  0
 17 35  1  0
 19 36  1  0
 19 37  1  0
 23 38  1  0
 23 39  1  0
 26 40  1  0
 26 41  1  0
 26 42  1  0
 27 43  1  0
 27 44  1  0
 27 45  1  0
M  END
$$$$
confid_1
     RDKit          3D

 45 48  0  0  0  0  0  0  0  0999 V2000
   24.4800   26.1000   36.1300 N   0  0  0  0  0  0  0  0  0  0  0  0
   25.2500   26.2500   34.9900 C   0  0  0  0  0  0  0  0  0  0  0  0
   24.7400   25.7600   33.9900 O   0  0  0  0  0  0  0  0  0  0  0  0
   26.5900   26.8900   34.9600 C   0  0  0  0  0  0  0  0  0  0  0  0
   27.0600   27.2400   36.1600 N   0  0  0  0  0  0  0  0  0  0  0  0
   28.3000   27.7100   36.2400 N   0  0  0  0  0  0  0  0  0  0  0  0
   29.0500   27.9600   35.1500 C   0  0  0  0  0  0  0  0  0  0  0  0
   30.3400   28.4900   35.2600 C   0  0  0  0  0  0  0  0  0  0  0  0
   31.1100   28.8200   34.1400 C   0  0  0  0  0  0  0  0  0  0  0  0
   30.5200   28.6700   32.8800 C   0  0  0  0  0  0  0  0  0  0  0  0
   29.2900   28.0200   32.7700 C   0  0  0  0  0  0  0  0  0  0  0  0
   28.5200   27.7100   33.8900 C   0  0  0  0  0  0  0  0  0  0  0  0
   27.2700   27.0800   33.7600 C   0  0  0  0  0  0  0  0  0  0  0  0
   26.7500   26.8800   32.4900 N   0  0  0  0  0  0  0  0  0  0  0  0
   23.0493   25.9135   36.1241 C   0  0  0  0  0  0  0  0  0  0  0  0
   22.3175   26.4246   35.0978 N   0  0  0  0  0  0  0  0  0  0  0  0
   20.9668   26.3399   35.0523 C   0  0  0  0  0  0  0  0  0  0  0  0
   20.2605   25.7592   36.1086 C   0  0  0  0  0  0  0  0  0  0  0  0
   18.7637   25.6320   36.0155 C   0  0  0  0  0  0  0  0  0  0  0  0
   18.1386   25.6751   37.3727 C   0  0  0  0  0  0  0  0  0  0  0  0
   16.9580   26.1013   37.4969 O   0  0  0  0  0  0  0  0  0  0  0  0
   18.8641   25.1946   38.5168 N   0  0  0  0  0  0  0  0  0  0  0  0
   20.1982   24.6000   38.3524 C   0  0  0  0  0  0  0  0  0  0  0  0
   20.9710   25.2326   37.2077 C   0  0  0  0  0  0  0  0  0  0  0  0
   22.3917   25.2494   37.1882 C   0  0  0  0  0  0  0  0  0  0  0  0
   23.1957   24.5778   38.2791 C   0  0  0  0  0  0  0  0  0  0  0  0
   18.2111   25.1706   39.8282 C   0  0  0  0  0  0  0  0  0  0  0  0
   24.9502   26.2126   37.0554 H   0  0  0  0  0  0  0  0  0  0  0  0
   30.7582   28.6623   36.2441 H   0  0  0  0  0  0  0  0  0  0  0  0
   32.0994   29.2455   34.2469 H   0  0  0  0  0  0  0  0  0  0  0  0
   31.0715   28.9442   31.9898 H   0  0  0  0  0  0  0  0  0  0  0  0
   28.9437   27.8129   31.7669 H   0  0  0  0  0  0  0  0  0  0  0  0
   26.7154   27.6568   31.7927 H   0  0  0  0  0  0  0  0  0  0  0  0
   26.3616   25.9529   32.2110 H   0  0  0  0  0  0  0  0  0  0  0  0
   20.4425   26.7412   34.1944 H   0  0  0  0  0  0  0  0  0  0  0  0
   18.5117   24.6645   35.5324 H   0  0  0  0  0  0  0  0  0  0  0  0
   18.3447   26.4555   35.3963 H   0  0  0  0  0  0  0  0  0  0  0  0
   20.7622   24.7320   39.2999 H   0  0  0  0  0  0  0  0  0  0  0  0
   20.0890   23.5125   38.1548 H   0  0  0  0  0  0  0  0  0  0  0  0
   23.3435   25.2830   39.1233 H   0  0  0  0  0  0  0  0  0  0  0  0
   22.6895   23.6606   38.6445 H   0  0  0  0  0  0  0  0  0  0  0  0
   24.1834   24.2374   37.9056 H   0  0  0  0  0  0  0  0  0  0  0  0
   17.2644   24.5932   39.7673 H   0  0  0  0  0  0  0  0  0  0  0  0
   17.9877   26.2086   40.1528 H   0  0  0  0  0  0  0  0  0  0  0  0
   18.8575   24.6926   40.5946 H   0  0  0  0  0  0  0  0  0  0  0  0
  1  2  1  0
  2  3  2  0
  2  4  1  0
  4  5  2  0
  5  6  1  0
  6  7  2  0
  7  8  1  0
  8  9  2  0
  9 10  1  0
 10 11  2  0
 11 12  1  0
 12 13  2  0
 13 14  1  0
  1 15  1  0
 15 16  2  0
 16 17  1  0
 17 18  2  0
 18 19  1  0
 19 20  1  0
 20 21  2  0
 20 22  1  0
 22 23  1  0
 23 24  1  0
 24 25  2  0
 25 26  1  0
 22 27  1  0
 13  4  1  0
 25 15  1  0
 12  7  1  0
 24 18  1  0
  1 28  1  0
  8 29  1  0
  9 30  1  0
 10 31  1  0
 11 32  1  0
 14 33  1  0
 14 34  1  0
 17 35  1  0
 19 36  1  0
 19 37  1  0
 23 38  1  0
 23 39  1  0
 26 40  1  0
 26 41  1  0
 26 42  1  0
 27 43  1  0
 27 44  1  0
 27 45  1  0
M  END
$$$$
confid_2
     RDKit          3D

 45 48  0  0  0  0  0  0  0  0999 V2000
   24.4800   26.1000   36.1300 N   0  0  0  0  0  0  0  0  0  0  0  0
   25.2500   26.2500   34.9900 C   0  0  0  0  0  0  0  0  0  0  0  0
   24.7400   25.7600   33.9900 O   0  0  0  0  0  0  0  0  0  0  0  0
   26.5900   26.8900   34.9600 C   0  0  0  0  0  0  0  0  0  0  0  0
   27.0600   27.2400   36.1600 N   0  0  0  0  0  0  0  0  0  0  0  0
   28.3000   27.7100   36.2400 N   0  0  0  0  0  0  0  0  0  0  0  0
   29.0500   27.9600   35.1500 C   0  0  0  0  0  0  0  0  0  0  0  0
   30.3400   28.4900   35.2600 C   0  0  0  0  0  0  0  0  0  0  0  0
   31.1100   28.8200   34.1400 C   0  0  0  0  0  0  0  0  0  0  0  0
   30.5200   28.6700   32.8800 C   0  0  0  0  0  0  0  0  0  0  0  0
   29.2900   28.0200   32.7700 C   0  0  0  0  0  0  0  0  0  0  0  0
   28.5200   27.7100   33.8900 C   0  0  0  0  0  0  0  0  0  0  0  0
   27.2700   27.0800   33.7600 C   0  0  0  0  0  0  0  0  0  0  0  0
   26.7500   26.8800   32.4900 N   0  0  0  0  0  0  0  0  0  0  0  0
   23.3516   25.2096   36.2422 C   0  0  0  0  0  0  0  0  0  0  0  0
   23.4086   23.9906   35.6443 N   0  0  0  0  0  0  0  0  0  0  0  0
   22.4137   23.0785   35.7548 C   0  0  0  0  0  0  0  0  0  0  0  0
   21.2917   23.3486   36.5424 C   0  0  0  0  0  0  0  0  0  0  0  0
   20.1772   22.3392   36.6123 C   0  0  0  0  0  0  0  0  0  0  0  0
   19.4467   22.4303   37.9133 C   0  0  0  0  0  0  0  0  0  0  0  0
   18.8791   21.4046   38.3761 O   0  0  0  0  0  0  0  0  0  0  0  0
   19.3708   23.6827   38.6146 N   0  0  0  0  0  0  0  0  0  0  0  0
   19.9603   24.8958   38.0320 C   0  0  0  0  0  0  0  0  0  0  0  0
   21.1947   24.5931   37.2014 C   0  0  0  0  0  0  0  0  0  0  0  0
   22.2130   25.5636   37.0050 C   0  0  0  0  0  0  0  0  0  0  0  0
   22.0895   26.9497   37.5983 C   0  0  0  0  0  0  0  0  0  0  0  0
   18.5923   23.7744   39.8525 C   0  0  0  0  0  0  0  0  0  0  0  0
   24.7414   26.6564   36.9754 H   0  0  0  0  0  0  0  0  0  0  0  0
   30.7582   28.6619   36.2442 H   0  0  0  0  0  0  0  0  0  0  0  0
   32.0994   29.2457   34.2471 H   0  0  0  0  0  0  0  0  0  0  0  0
   31.0714   28.9442   31.9899 H   0  0  0  0  0  0  0  0  0  0  0  0
   28.9438   27.8130   31.7669 H   0  0  0  0  0  0  0  0  0  0  0  0
   26.7160   27.6566   31.7926 H   0  0  0  0  0  0  0  0  0  0  0  0
   26.3608   25.9532   32.2111 H   0  0  0  0  0  0  0  0  0  0  0  0
   22.5029   22.1354   35.2310 H   0  0  0  0  0  0  0  0  0  0  0  0
   19.4637   22.5275   35.7833 H   0  0  0  0  0  0  0  0  0  0  0  0
   20.5861   21.3114   36.4993 H   0  0  0  0  0  0  0  0  0  0  0  0
   20.2223   25.5934   38.8548 H   0  0  0  0  0  0  0  0  0  0  0  0
   19.2067   25.3874   37.3816 H   0  0  0  0  0  0  0  0  0  0  0  0
   22.7090   27.6938   37.0561 H   0  0  0  0  0  0  0  0  0  0  0  0
   21.0475   27.3190   37.5128 H   0  0  0  0  0  0  0  0  0  0  0  0
   22.3954   26.9280   38.6651 H   0  0  0  0  0  0  0  0  0  0  0  0
   17.5540   23.4244   39.6733 H   0  0  0  0  0  0  0  0  0  0  0  0
   18.5403   24.8203   40.2226 H   0  0  0  0  0  0  0  0  0  0  0  0
   19.0618   23.1445   40.6351 H   0  0  0  0  0  0  0  0  0  0  0  0
  1  2  1  0
  2  3  2  0
  2  4  1  0
  4  5  2  0
  5  6  1  0
  6  7  2  0
  7  8  1  0
  8  9  2  0
  9 10  1  0
 10 11  2  0
 11 12  1  0
 12 13  2  0
 13 14  1  0
  1 15  1  0
 15 16  2  0
 16 17  1  0
 17 18  2  0
 18 19  1  0
 19 20  1  0
 20 21  2  0
 20 22  1  0
 22 23  1  0
 23 24  1  0
 24 25  2  0
 25 26  1  0
 22 27  1  0
 13  4  1  0
 25 15  1  0
 12  7  1  0
 24 18  1  0
  1 28  1  0
  8 29  1  0
  9 30  1  0
 10 31  1  0
 11 32  1  0
 14 33  1  0
 14 34  1  0
 17 35  1  0
 19 36  1  0
 19 37  1  0
 23 38  1  0
 23 39  1  0
 26 40  1  0
 26 41  1  0
 26 42  1  0
 27 43  1  0
 27 44  1  0
 27 45  1  0
M  END
$$$$
confid_3
     RDKit          3D

 45 48  0  0  0  0  0  0  0  0999 V2000
   24.4800   26.1000   36.1300 N   0  0  0  0  0  0  0  0  0  0  0  0
   25.2500   26.2500   34.9900 C   0  0  0  0  0  0  0  0  0  0  0  0
   24.7400   25.7600   33.9900 O   0  0  0  0  0  0  0  0  0  0  0  0
   26.5900   26.8900   34.9600 C   0  0  0  0  0  0  0  0  0  0  0  0
   27.0600   27.2400   36.1600 N   0  0  0  0  0  0  0  0  0  0  0  0
   28.3000   27.7100   36.2400 N   0  0  0  0  0  0  0  0  0  0  0  0
   29.0500   27.9600   35.1500 C   0  0  0  0  0  0  0  0  0  0  0  0
   30.3400   28.4900   35.2600 C   0  0  0  0  0  0  0  0  0  0  0  0
   31.1100   28.8200   34.1400 C   0  0  0  0  0  0  0  0  0  0  0  0
   30.5200   28.6700   32.8800 C   0  0  0  0  0  0  0  0  0  0  0  0
   29.2900   28.0200   32.7700 C   0  0  0  0  0  0  0  0  0  0  0  0
   28.5200   27.7100   33.8900 C   0  0  0  0  0  0  0  0  0  0  0  0
   27.2700   27.0800   33.7600 C   0  0  0  0  0  0  0  0  0  0  0  0
   26.7500   26.8800   32.4900 N   0  0  0  0  0  0  0  0  0  0  0  0
   23.1355   25.5810   36.1456 C   0  0  0  0  0  0  0  0  0  0  0  0
   22.2649   25.9639   35.1758 N   0  0  0  0  0  0  0  0  0  0  0  0
   20.9784   25.5429   35.1471 C   0  0  0  0  0  0  0  0  0  0  0  0
   20.4786   24.7262   36.1652 C   0  0  0  0  0  0  0  0  0  0  0  0
   19.0673   24.2147   36.0712 C   0  0  0  0  0  0  0  0  0  0  0  0
   18.4944   23.9387   37.4243 C   0  0  0  0  0  0  0  0  0  0  0  0
   17.2432   23.9709   37.5816 O   0  0  0  0  0  0  0  0  0  0  0  0
   19.3559   23.5884   38.5198 N   0  0  0  0  0  0  0  0  0  0  0  0
   20.7999   23.4241   38.3090 C   0  0  0  0  0  0  0  0  0  0  0  0
   21.3356   24.3239   37.2093 C   0  0  0  0  0  0  0  0  0  0  0  0
   22.7016   24.7099   37.1718 C   0  0  0  0  0  0  0  0  0  0  0  0
   23.6868   24.1980   38.1985 C   0  0  0  0  0  0  0  0  0  0  0  0
   18.7674   23.2153   39.8076 C   0  0  0  0  0  0  0  0  0  0  0  0
   24.9025   26.3529   37.0493 H   0  0  0  0  0  0  0  0  0  0  0  0
   30.7579   28.6631   36.2441 H   0  0  0  0  0  0  0  0  0  0  0  0
   32.0982   29.2481   34.2471 H   0  0  0  0  0  0  0  0  0  0  0  0
   31.0665   28.9547   31.9899 H   0  0  0  0  0  0  0  0  0  0  0  0
   28.9255   27.8589   31.7656 H   0  0  0  0  0  0  0  0  0  0  0  0
   27.2963   26.3770   31.7560 H   0  0  0  0  0  0  0  0  0  0  0  0
   25.7672   27.1501   32.2657 H   0  0  0  0  0  0  0  0  0  0  0  0
   20.3399   25.8598   34.3347 H   0  0  0  0  0  0  0  0  0  0  0  0
   18.4241   24.9582   35.5509 H   0  0  0  0  0  0  0  0  0  0  0  0
   19.0634   23.2756   35.4803 H   0  0  0  0  0  0  0  0  0  0  0  0
   21.3204   23.6567   39.2622 H   0  0  0  0  0  0  0  0  0  0  0  0
   21.0118   22.3662   38.0472 H   0  0  0  0  0  0  0  0  0  0  0  0
   24.7180   24.1673   37.7924 H   0  0  0  0  0  0  0  0  0  0  0  0
   23.6658   24.8500   39.0977 H   0  0  0  0  0  0  0  0  0  0  0  0
   23.4530   23.1534   38.4958 H   0  0  0  0  0  0  0  0  0  0  0  0
   18.0273   22.4009   39.6644 H   0  0  0  0  0  0  0  0  0  0  0  0
   18.2630   24.0960   40.2586 H   0  0  0  0  0  0  0  0  0  0  0  0
   19.5429   22.8558   40.5162 H   0  0  0  0  0  0  0  0  0  0  0  0
  1  2  1  0
  2  3  2  0
  2  4  1  0
  4  5  2  0
  5  6  1  0
  6  7  2  0
  7  8  1  0
  8  9  2  0
  9 10  1  0
 10 11  2  0
 11 12  1  0
 12 13  2  0
 13 14  1  0
  1 15  1  0
 15 16  2  0
 16 17  1  0
 17 18  2  0
 18 19  1  0
 19 20  1  0
 20 21  2  0
 20 22  1  0
 22 23  1  0
 23 24  1  0
 24 25  2  0
 25 26  1  0
 22 27  1  0
 13  4  1  0
 25 15  1  0
 12  7  1  0
 24 18  1  0
  1 28  1  0
  8 29  1  0
  9 30  1  0
 10 31  1  0
 11 32  1  0
 14 33  1  0
 14 34  1  0
 17 35  1  0
 19 36  1  0
 19 37  1  0
 23 38  1  0
 23 39  1  0
 26 40  1  0
 26 41  1  0
 26 42  1  0
 27 43  1  0
 27 44  1  0
 27 45  1  0
M  END
$$$$
