confid_0
     RDKit          3D

 41 44  0  0  0  0  0  0  0  0999 V2000
   24.6900   26.1200   35.5300 N   0  0  0  0  0  0  0  0  0  0  0  0
   25.6600   25.6700   34.6600 C   0  0  0  0  0  0  0  0  0  0  0  0
   25.2400   25.0100   33.7200 O   0  0  0  0  0  0  0  0  0  0  0  0
   27.0300   26.2200   34.8800 C   0  0  0  0  0  0  0  0  0  0  0  0
   27.3500   26.7300   36.0700 N   0  0  0  0  0  0  0  0  0  0  0  0
   28.5700   27.1800   36.3300 N   0  0  0  0  0  0  0  0  0  0  0  0
   29.5300   27.1100   35.3900 C   0  0  0  0  0  0  0  0  0  0  0  0
   30.8300   27.5700   35.6500 C   0  0  0  0  0  0  0  0  0  0  0  0
   31.8500   27.5400   34.6900 C   0  0  0  0  0  0  0  0  0  0  0  0
   31.5100   27.1200   33.4000 C   0  0  0  0  0  0  0  0  0  0  0  0
   30.2200   26.6300   33.1100 C   0  0  0  0  0  0  0  0  0  0  0  0
   29.2400   26.6600   34.1000 C   0  0  0  0  0  0  0  0  0  0  0  0
   27.9300   26.2600   33.8100 C   0  0  0  0  0  0  0  0  0  0  0  0
   27.5200   25.7100   32.6100 N   0  0  0  0  0  0  0  0  0  0  0  0
   31.1429   28.0715   36.9611 N   0  0  0  0  0  0  0  0  0  0  0  0
   30.5820   29.3651   37.3978 C   0  0  0  0  0  0  0  0  0  0  0  0
   30.0803   29.2824   38.8509 C   0  0  0  0  0  0  0  0  0  0  0  0
   31.0865   28.5617   39.6901 C   0  0  0  0  0  0  0  0  0  0  0  0
   31.2090   28.4702   41.0620 C   0  0  0  0  0  0  0  0  0  0  0  0
   32.2012   27.6057   41.3672 N   0  0  0  0  0  0  0  0  0  0  0  0
   32.7008   27.1517   40.2250 N   0  0  0  0  0  0  0  0  0  0  0  0
   33.7608   26.1552   40.1393 C   0  0  0  0  0  0  0  0  0  0  0  0
   32.0241   27.6961   39.1952 C   0  0  0  0  0  0  0  0  0  0  0  0
   32.2348   27.4511   37.7325 C   0  0  0  0  0  0  0  0  0  0  0  0
   30.2247   29.2977   42.2519 Cl  0  0  0  0  0  0  0  0  0  0  0  0
   23.6981   25.8078   35.4228 H   0  0  0  0  0  0  0  0  0  0  0  0
   24.8908   26.7905   36.3051 H   0  0  0  0  0  0  0  0  0  0  0  0
   32.8494   27.8927   34.9105 H   0  0  0  0  0  0  0  0  0  0  0  0
   32.2650   27.1224   32.6245 H   0  0  0  0  0  0  0  0  0  0  0  0
   30.0113   26.2788   32.1077 H   0  0  0  0  0  0  0  0  0  0  0  0
   27.6977   26.2229   31.7183 H   0  0  0  0  0  0  0  0  0  0  0  0
   27.3415   24.6831   32.5416 H   0  0  0  0  0  0  0  0  0  0  0  0
   29.7412   29.6775   36.7407 H   0  0  0  0  0  0  0  0  0  0  0  0
   31.3730   30.1429   37.3240 H   0  0  0  0  0  0  0  0  0  0  0  0
   29.9121   30.3049   39.2511 H   0  0  0  0  0  0  0  0  0  0  0  0
   29.1219   28.7215   38.8810 H   0  0  0  0  0  0  0  0  0  0  0  0
   33.3285   25.1766   39.8432 H   0  0  0  0  0  0  0  0  0  0  0  0
   34.5148   26.4681   39.3866 H   0  0  0  0  0  0  0  0  0  0  0  0
   34.2641   26.0468   41.1233 H   0  0  0  0  0  0  0  0  0  0  0  0
   32.2547   26.3551   37.5488 H   0  0  0  0  0  0  0  0  0  0  0  0
   33.2062   27.8918   37.4245 H   0  0  0  0  0  0  0  0  0  0  0  0
  1  2  1  0
  2  3  2  0
  2  4  1  0
  4  5  2  0
  5  6  1  0
  6  7  2  0
  7  8  1  0
  8  9  2  0
  9 10  1  0
 10 11  2  0
 11 12  1  0
 12 13  2  0
 13 14  1  0
  8 15  1  0
 15 16  1  0
 16 17  1  0
 17 18  1  0
 18 19  1  0
 19 20  2  0
 20 21  1  0
 21 22  1  0
 21 23  1  0
 23 24  1  0
 19 25  1  0
 13  4  1  0
 24 15  1  0
 12  7  1  0
 23 18  2  0
  1 26  1  0
  1 27  1  0
  9 28  1  0
 10 29  1  0
 11 30  1  0
 14 31  1  0
 14 32  1  0
 16 33  1  0
 16 34  1  0
 17 35  1  0
 17 36  1  0
 22 37  1  0
 22 38  1  0
 22 39  1  0
 24 40  1  0
 24 41  1  0
M  END
$$$$
confid_1
     RDKit          3D

 41 44  0  0  0  0  0  0  0  0999 V2000
   24.6900   26.1200   35.5300 N   0  0  0  0  0  0  0  0  0  0  0  0
   25.6600   25.6700   34.6600 C   0  0  0  0  0  0  0  0  0  0  0  0
   25.2400   25.0100   33.7200 O   0  0  0  0  0  0  0  0  0  0  0  0
   27.0300   26.2200   34.8800 C   0  0  0  0  0  0  0  0  0  0  0  0
   27.3500   26.7300   36.0700 N   0  0  0  0  0  0  0  0  0  0  0  0
   28.5700   27.1800   36.3300 N   0  0  0  0  0  0  0  0  0  0  0  0
   29.5300   27.1100   35.3900 C   0  0  0  0  0  0  0  0  0  0  0  0
   30.8300   27.5700   35.6500 C   0  0  0  0  0  0  0  0  0  0  0  0
   31.8500   27.5400   34.6900 C   0  0  0  0  0  0  0  0  0  0  0  0
   31.5100   27.1200   33.4000 C   0  0  0  0  0  0  0  0  0  0  0  0
   30.2200   26.6300   33.1100 C   0  0  0  0  0  0  0  0  0  0  0  0
   29.2400   26.6600   34.1000 C   0  0  0  0  0  0  0  0  0  0  0  0
   27.9300   26.2600   33.8100 C   0  0  0  0  0  0  0  0  0  0  0  0
   27.5200   25.7100   32.6100 N   0  0  0  0  0  0  0  0  0  0  0  0
   31.1617   28.0607   36.9595 N   0  0  0  0  0  0  0  0  0  0  0  0
   31.0587   27.1660   38.1294 C   0  0  0  0  0  0  0  0  0  0  0  0
   32.2744   27.3329   39.0579 C   0  0  0  0  0  0  0  0  0  0  0  0
   32.5669   28.7868   39.2429 C   0  0  0  0  0  0  0  0  0  0  0  0
   33.3544   29.4314   40.1753 C   0  0  0  0  0  0  0  0  0  0  0  0
   33.4241   30.7459   39.8716 N   0  0  0  0  0  0  0  0  0  0  0  0
   32.7042   30.9406   38.7742 N   0  0  0  0  0  0  0  0  0  0  0  0
   32.5802   32.2268   38.1002 C   0  0  0  0  0  0  0  0  0  0  0  0
   32.1957   29.7638   38.3601 C   0  0  0  0  0  0  0  0  0  0  0  0
   31.3550   29.5098   37.1463 C   0  0  0  0  0  0  0  0  0  0  0  0
   34.1854   28.6891   41.5273 Cl  0  0  0  0  0  0  0  0  0  0  0  0
   24.8908   26.7904   36.3051 H   0  0  0  0  0  0  0  0  0  0  0  0
   23.6981   25.8078   35.4227 H   0  0  0  0  0  0  0  0  0  0  0  0
   32.8521   27.8816   34.9174 H   0  0  0  0  0  0  0  0  0  0  0  0
   32.2658   27.1197   32.6253 H   0  0  0  0  0  0  0  0  0  0  0  0
   30.0115   26.2782   32.1079 H   0  0  0  0  0  0  0  0  0  0  0  0
   27.6978   26.2229   31.7183 H   0  0  0  0  0  0  0  0  0  0  0  0
   27.3415   24.6832   32.5416 H   0  0  0  0  0  0  0  0  0  0  0  0
   30.1306   27.4090   38.6913 H   0  0  0  0  0  0  0  0  0  0  0  0
   30.9978   26.1035   37.8061 H   0  0  0  0  0  0  0  0  0  0  0  0
   32.0678   26.8569   40.0400 H   0  0  0  0  0  0  0  0  0  0  0  0
   33.1609   26.8450   38.5993 H   0  0  0  0  0  0  0  0  0  0  0  0
   33.2037   32.2273   37.1818 H   0  0  0  0  0  0  0  0  0  0  0  0
   31.5199   32.4102   37.8261 H   0  0  0  0  0  0  0  0  0  0  0  0
   32.9208   33.0441   38.7706 H   0  0  0  0  0  0  0  0  0  0  0  0
   31.8645   29.9475   36.2612 H   0  0  0  0  0  0  0  0  0  0  0  0
   30.3667   29.9999   37.2729 H   0  0  0  0  0  0  0  0  0  0  0  0
  1  2  1  0
  2  3  2  0
  2  4  1  0
  4  5  2  0
  5  6  1  0
  6  7  2  0
  7  8  1  0
  8  9  2  0
  9 10  1  0
 10 11  2  0
 11 12  1  0
 12 13  2  0
 13 14  1  0
  8 15  1  0
 15 16  1  0
 16 17  1  0
 17 18  1  0
 18 19  1  0
 19 20  2  0
 20 21  1  0
 21 22  1  0
 21 23  1  0
 23 24  1  0
 19 25  1  0
 13  4  1  0
 24 15  1  0
 12  7  1  0
 23 18  2  0
  1 26  1  0
  1 27  1  0
  9 28  1  0
 10 29  1  0
 11 30  1  0
 14 31  1  0
 14 32  1  0
 16 33  1  0
 16 34  1  0
 17 35  1  0
 17 36  1  0
 22 37  1  0
 22 38  1  0
 22 39  1  0
 24 40  1  0
 24 41  1  0
M  END
$$$$
confid_2
     RDKit          3D

 41 44  0  0  0  0  0  0  0  0999 V2000
   24.6900   26.1200   35.5300 N   0  0  0  0  0  0  0  0  0  0  0  0
   25.6600   25.6700   34.6600 C   0  0  0  0  0  0  0  0  0  0  0  0
   25.2400   25.0100   33.7200 O   0  0  0  0  0  0  0  0  0  0  0  0
   27.0300   26.2200   34.8800 C   0  0  0  0  0  0  0  0  0  0  0  0
   27.3500   26.7300   36.0700 N   0  0  0  0  0  0  0  0  0  0  0  0
   28.5700   27.1800   36.3300 N   0  0  0  0  0  0  0  0  0  0  0  0
   29.5300   27.1100   35.3900 C   0  0  0  0  0  0  0  0  0  0  0  0
   30.8300   27.5700   35.6500 C   0  0  0  0  0  0  0  0  0  0  0  0
   31.8500   27.5400   34.6900 C   0  0  0  0  0  0  0  0  0  0  0  0
   31.5100   27.1200   33.4000 C   0  0  0  0  0  0  0  0  0  0  0  0
   30.2200   26.6300   33.1100 C   0  0  0  0  0  0  0  0  0  0  0  0
   29.2400   26.6600   34.1000 C   0  0  0  0  0  0  0  0  0  0  0  0
   27.9300   26.2600   33.8100 C   0  0  0  0  0  0  0  0  0  0  0  0
   27.5200   25.7100   32.6100 N   0  0  0  0  0  0  0  0  0  0  0  0
   31.1635   28.0527   36.9650 N   0  0  0  0  0  0  0  0  0  0  0  0
   31.6646   29.4291   37.1444 C   0  0  0  0  0  0  0  0  0  0  0  0
   33.0355   29.4213   37.8454 C   0  0  0  0  0  0  0  0  0  0  0  0
   33.0090   28.4564   38.9892 C   0  0  0  0  0  0  0  0  0  0  0  0
   33.8833   28.2933   40.0448 C   0  0  0  0  0  0  0  0  0  0  0  0
   33.5156   27.2140   40.7695 N   0  0  0  0  0  0  0  0  0  0  0  0
   32.4377   26.6954   40.1954 N   0  0  0  0  0  0  0  0  0  0  0  0
   31.7694   25.4867   40.6606 C   0  0  0  0  0  0  0  0  0  0  0  0
   32.1272   27.4146   39.0996 C   0  0  0  0  0  0  0  0  0  0  0  0
   30.9984   27.1809   38.1425 C   0  0  0  0  0  0  0  0  0  0  0  0
   35.2824   29.2862   40.3999 Cl  0  0  0  0  0  0  0  0  0  0  0  0
   23.6981   25.8078   35.4227 H   0  0  0  0  0  0  0  0  0  0  0  0
   24.8908   26.7904   36.3051 H   0  0  0  0  0  0  0  0  0  0  0  0
   32.8538   27.8768   34.9164 H   0  0  0  0  0  0  0  0  0  0  0  0
   32.2661   27.1187   32.6255 H   0  0  0  0  0  0  0  0  0  0  0  0
   30.0116   26.2779   32.1080 H   0  0  0  0  0  0  0  0  0  0  0  0
   27.3415   24.6832   32.5417 H   0  0  0  0  0  0  0  0  0  0  0  0
   27.6979   26.2229   31.7183 H   0  0  0  0  0  0  0  0  0  0  0  0
   31.7519   29.9544   36.1682 H   0  0  0  0  0  0  0  0  0  0  0  0
   30.9381   29.9966   37.7657 H   0  0  0  0  0  0  0  0  0  0  0  0
   33.8184   29.1015   37.1253 H   0  0  0  0  0  0  0  0  0  0  0  0
   33.2779   30.4412   38.2124 H   0  0  0  0  0  0  0  0  0  0  0  0
   32.0084   24.6436   39.9792 H   0  0  0  0  0  0  0  0  0  0  0  0
   32.1101   25.2321   41.6865 H   0  0  0  0  0  0  0  0  0  0  0  0
   30.6704   25.6452   40.6796 H   0  0  0  0  0  0  0  0  0  0  0  0
   30.0390   27.4172   38.6485 H   0  0  0  0  0  0  0  0  0  0  0  0
   30.9979   26.1123   37.8363 H   0  0  0  0  0  0  0  0  0  0  0  0
  1  2  1  0
  2  3  2  0
  2  4  1  0
  4  5  2  0
  5  6  1  0
  6  7  2  0
  7  8  1  0
  8  9  2  0
  9 10  1  0
 10 11  2  0
 11 12  1  0
 12 13  2  0
 13 14  1  0
  8 15  1  0
 15 16  1  0
 16 17  1  0
 17 18  1  0
 18 19  1  0
 19 20  2  0
 20 21  1  0
 21 22  1  0
 21 23  1  0
 23 24  1  0
 19 25  1  0
 13  4  1  0
 24 15  1  0
 12  7  1  0
 23 18  2  0
  1 26  1  0
  1 27  1  0
  9 28  1  0
 10 29  1  0
 11 30  1  0
 14 31  1  0
 14 32  1  0
 16 33  1  0
 16 34  1  0
 17 35  1  0
 17 36  1  0
 22 37  1  0
 22 38  1  0
 22 39  1  0
 24 40  1  0
 24 41  1  0
M  END
$$$$
confid_3
     RDKit          3D

 41 44  0  0  0  0  0  0  0  0999 V2000
   24.6900   26.1200   35.5300 N   0  0  0  0  0  0  0  0  0  0  0  0
   25.6600   25.6700   34.6600 C   0  0  0  0  0  0  0  0  0  0  0  0
   25.2400   25.0100   33.7200 O   0  0  0  0  0  0  0  0  0  0  0  0
   27.0300   26.2200   34.8800 C   0  0  0  0  0  0  0  0  0  0  0  0
   27.3500   26.7300   36.0700 N   0  0  0  0  0  0  0  0  0  0  0  0
   28.5700   27.1800   36.3300 N   0  0  0  0  0  0  0  0  0  0  0  0
   29.5300   27.1100   35.3900 C   0  0  0  0  0  0  0  0  0  0  0  0
   30.8300   27.5700   35.6500 C   0  0  0  0  0  0  0  0  0  0  0  0
   31.8500   27.5400   34.6900 C   0  0  0  0  0  0  0  0  0  0  0  0
   31.5100   27.1200   33.4000 C   0  0  0  0  0  0  0  0  0  0  0  0
   30.2200   26.6300   33.1100 C   0  0  0  0  0  0  0  0  0  0  0  0
   29.2400   26.6600   34.1000 C   0  0  0  0  0  0  0  0  0  0  0  0
   27.9300   26.2600   33.8100 C   0  0  0  0  0  0  0  0  0  0  0  0
   27.5200   25.7100   32.6100 N   0  0  0  0  0  0  0  0  0  0  0  0
   31.1472   28.0566   36.9643 N   0  0  0  0  0  0  0  0  0  0  0  0
   31.6522   29.4341   37.1234 C   0  0  0  0  0  0  0  0  0  0  0  0
   31.0640   30.0934   38.3842 C   0  0  0  0  0  0  0  0  0  0  0  0
   31.1049   29.1277   39.5246 C   0  0  0  0  0  0  0  0  0  0  0  0
   30.9379   29.3331   40.8793 C   0  0  0  0  0  0  0  0  0  0  0  0
   30.9284   28.1416   41.5159 N   0  0  0  0  0  0  0  0  0  0  0  0
   31.0819   27.1970   40.5970 N   0  0  0  0  0  0  0  0  0  0  0  0
   31.0708   25.7690   40.8881 C   0  0  0  0  0  0  0  0  0  0  0  0
   31.1640   27.7687   39.3799 C   0  0  0  0  0  0  0  0  0  0  0  0
   31.3175   27.0826   38.0576 C   0  0  0  0  0  0  0  0  0  0  0  0
   30.7249   30.8772   41.6792 Cl  0  0  0  0  0  0  0  0  0  0  0  0
   23.6981   25.8079   35.4227 H   0  0  0  0  0  0  0  0  0  0  0  0
   24.8908   26.7904   36.3051 H   0  0  0  0  0  0  0  0  0  0  0  0
   32.8523   27.8814   34.9161 H   0  0  0  0  0  0  0  0  0  0  0  0
   32.2644   27.1249   32.6239 H   0  0  0  0  0  0  0  0  0  0  0  0
   30.0102   26.3030   32.1005 H   0  0  0  0  0  0  0  0  0  0  0  0
   26.6941   26.1028   32.1054 H   0  0  0  0  0  0  0  0  0  0  0  0
   28.1316   25.0435   32.0893 H   0  0  0  0  0  0  0  0  0  0  0  0
   32.7610   29.4072   37.2009 H   0  0  0  0  0  0  0  0  0  0  0  0
   31.3838   30.0532   36.2391 H   0  0  0  0  0  0  0  0  0  0  0  0
   30.0066   30.3766   38.1944 H   0  0  0  0  0  0  0  0  0  0  0  0
   31.6422   31.0074   38.6372 H   0  0  0  0  0  0  0  0  0  0  0  0
   31.9019   25.2663   40.3499 H   0  0  0  0  0  0  0  0  0  0  0  0
   30.1036   25.3308   40.5643 H   0  0  0  0  0  0  0  0  0  0  0  0
   31.1991   25.6000   41.9782 H   0  0  0  0  0  0  0  0  0  0  0  0
   32.3302   26.6316   37.9945 H   0  0  0  0  0  0  0  0  0  0  0  0
   30.5590   26.2750   37.9797 H   0  0  0  0  0  0  0  0  0  0  0  0
  1  2  1  0
  2  3  2  0
  2  4  1  0
  4  5  2  0
  5  6  1  0
  6  7  2  0
  7  8  1  0
  8  9  2  0
  9 10  1  0
 10 11  2  0
 11 12  1  0
 12 13  2  0
 13 14  1  0
  8 15  1  0
 15 16  1  0
 16 17  1  0
 17 18  1  0
 18 19  1  0
 19 20  2  0
 20 21  1  0
 21 22  1  0
 21 23  1  0
 23 24  1  0
 19 25  1  0
 13  4  1  0
 24 15  1  0
 12  7  1  0
 23 18  2  0
  1 26  1  0
  1 27  1  0
  9 28  1  0
 10 29  1  0
 11 30  1  0
 14 31  1  0
 14 32  1  0
 16 33  1  0
 16 34  1  0
 17 35  1  0
 17 36  1  0
 22 37  1  0
 22 38  1  0
 22 39  1  0
 24 40  1  0
 24 41  1  0
M  END
$$$$
confid_4
     RDKit          3D

 41 44  0  0  0  0  0  0  0  0999 V2000
   24.6900   26.1200   35.5300 N   0  0  0  0  0  0  0  0  0  0  0  0
   25.6600   25.6700   34.6600 C   0  0  0  0  0  0  0  0  0  0  0  0
   25.2400   25.0100   33.7200 O   0  0  0  0  0  0  0  0  0  0  0  0
   27.0300   26.2200   34.8800 C   0  0  0  0  0  0  0  0  0  0  0  0
   27.3500   26.7300   36.0700 N   0  0  0  0  0  0  0  0  0  0  0  0
   28.5700   27.1800   36.3300 N   0  0  0  0  0  0  0  0  0  0  0  0
   29.5300   27.1100   35.3900 C   0  0  0  0  0  0  0  0  0  0  0  0
   30.8300   27.5700   35.6500 C   0  0  0  0  0  0  0  0  0  0  0  0
   31.8500   27.5400   34.6900 C   0  0  0  0  0  0  0  0  0  0  0  0
   31.5100   27.1200   33.4000 C   0  0  0  0  0  0  0  0  0  0  0  0
   30.2200   26.6300   33.1100 C   0  0  0  0  0  0  0  0  0  0  0  0
   29.2400   26.6600   34.1000 C   0  0  0  0  0  0  0  0  0  0  0  0
   27.9300   26.2600   33.8100 C   0  0  0  0  0  0  0  0  0  0  0  0
   27.5200   25.7100   32.6100 N   0  0  0  0  0  0  0  0  0  0  0  0
   31.1575   28.0720   36.9557 N   0  0  0  0  0  0  0  0  0  0  0  0
   30.5013   29.2954   37.4574 C   0  0  0  0  0  0  0  0  0  0  0  0
   31.5160   30.2154   38.1586 C   0  0  0  0  0  0  0  0  0  0  0  0
   32.3886   29.4028   39.0598 C   0  0  0  0  0  0  0  0  0  0  0  0
   33.2338   29.7919   40.0793 C   0  0  0  0  0  0  0  0  0  0  0  0
   33.9191   28.7178   40.5282 N   0  0  0  0  0  0  0  0  0  0  0  0
   33.5277   27.6687   39.8164 N   0  0  0  0  0  0  0  0  0  0  0  0
   34.0832   26.3298   39.9680 C   0  0  0  0  0  0  0  0  0  0  0  0
   32.6194   28.0634   38.9033 C   0  0  0  0  0  0  0  0  0  0  0  0
   31.9406   27.2197   37.8680 C   0  0  0  0  0  0  0  0  0  0  0  0
   33.4451   31.4196   40.6920 Cl  0  0  0  0  0  0  0  0  0  0  0  0
   23.6981   25.8078   35.4227 H   0  0  0  0  0  0  0  0  0  0  0  0
   24.8908   26.7906   36.3050 H   0  0  0  0  0  0  0  0  0  0  0  0
   32.8494   27.8911   34.9150 H   0  0  0  0  0  0  0  0  0  0  0  0
   32.2638   27.1270   32.6233 H   0  0  0  0  0  0  0  0  0  0  0  0
   30.0100   26.3035   32.1003 H   0  0  0  0  0  0  0  0  0  0  0  0
   26.6941   26.1028   32.1054 H   0  0  0  0  0  0  0  0  0  0  0  0
   28.1317   25.0435   32.0893 H   0  0  0  0  0  0  0  0  0  0  0  0
   30.0262   29.8556   36.6220 H   0  0  0  0  0  0  0  0  0  0  0  0
   29.7042   29.0101   38.1780 H   0  0  0  0  0  0  0  0  0  0  0  0
   32.1533   30.7132   37.3969 H   0  0  0  0  0  0  0  0  0  0  0  0
   30.9799   30.9920   38.7445 H   0  0  0  0  0  0  0  0  0  0  0  0
   34.6470   26.2555   40.9219 H   0  0  0  0  0  0  0  0  0  0  0  0
   34.7699   26.1140   39.1229 H   0  0  0  0  0  0  0  0  0  0  0  0
   33.2650   25.5792   39.9790 H   0  0  0  0  0  0  0  0  0  0  0  0
   32.7143   26.6592   37.3006 H   0  0  0  0  0  0  0  0  0  0  0  0
   31.2634   26.4955   38.3679 H   0  0  0  0  0  0  0  0  0  0  0  0
  1  2  1  0
  2  3  2  0
  2  4  1  0
  4  5  2  0
  5  6  1  0
  6  7  2  0
  7  8  1  0
  8  9  2  0
  9 10  1  0
 10 11  2  0
 11 12  1  0
 12 13  2  0
 13 14  1  0
  8 15  1  0
 15 16  1  0
 16 17  1  0
 17 18  1  0
 18 19  1  0
 19 20  2  0
 20 21  1  0
 21 22  1  0
 21 23  1  0
 23 24  1  0
 19 25  1  0
 13  4  1  0
 24 15  1  0
 12  7  1  0
 23 18  2  0
  1 26  1  0
  1 27  1  0
  9 28  1  0
 10 29  1  0
 11 30  1  0
 14 31  1  0
 14 32  1  0
 16 33  1  0
 16 34  1  0
 17 35  1  0
 17 36  1  0
 22 37  1  0
 22 38  1  0
 22 39  1  0
 24 40  1  0
 24 41  1  0
M  END
$$$$
confid_5
     RDKit          3D

 41 44  0  0  0  0  0  0  0  0999 V2000
   24.6900   26.1200   35.5300 N   0  0  0  0  0  0  0  0  0  0  0  0
   25.6600   25.6700   34.6600 C   0  0  0  0  0  0  0  0  0  0  0  0
   25.2400   25.0100   33.7200 O   0  0  0  0  0  0  0  0  0  0  0  0
   27.0300   26.2200   34.8800 C   0  0  0  0  0  0  0  0  0  0  0  0
   27.3500   26.7300   36.0700 N   0  0  0  0  0  0  0  0  0  0  0  0
   28.5700   27.1800   36.3300 N   0  0  0  0  0  0  0  0  0  0  0  0
   29.5300   27.1100   35.3900 C   0  0  0  0  0  0  0  0  0  0  0  0
   30.8300   27.5700   35.6500 C   0  0  0  0  0  0  0  0  0  0  0  0
   31.8500   27.5400   34.6900 C   0  0  0  0  0  0  0  0  0  0  0  0
   31.5100   27.1200   33.4000 C   0  0  0  0  0  0  0  0  0  0  0  0
   30.2200   26.6300   33.1100 C   0  0  0  0  0  0  0  0  0  0  0  0
   29.2400   26.6600   34.1000 C   0  0  0  0  0  0  0  0  0  0  0  0
   27.9300   26.2600   33.8100 C   0  0  0  0  0  0  0  0  0  0  0  0
   27.5200   25.7100   32.6100 N   0  0  0  0  0  0  0  0  0  0  0  0
   31.1471   28.0602   36.9648 N   0  0  0  0  0  0  0  0  0  0  0  0
   31.1792   27.1229   38.1049 C   0  0  0  0  0  0  0  0  0  0  0  0
   30.4894   27.7354   39.3374 C   0  0  0  0  0  0  0  0  0  0  0  0
   30.9239   29.1569   39.5022 C   0  0  0  0  0  0  0  0  0  0  0  0
   30.7903   30.0165   40.5738 C   0  0  0  0  0  0  0  0  0  0  0  0
   31.2253   31.2456   40.2200 N   0  0  0  0  0  0  0  0  0  0  0  0
   31.6246   31.1795   38.9565 N   0  0  0  0  0  0  0  0  0  0  0  0
   32.1164   32.3224   38.1975 C   0  0  0  0  0  0  0  0  0  0  0  0
   31.4270   29.9307   38.4916 C   0  0  0  0  0  0  0  0  0  0  0  0
   31.7143   29.4121   37.1159 C   0  0  0  0  0  0  0  0  0  0  0  0
   30.1278   29.6228   42.1472 Cl  0  0  0  0  0  0  0  0  0  0  0  0
   24.8908   26.7904   36.3051 H   0  0  0  0  0  0  0  0  0  0  0  0
   23.6981   25.8079   35.4227 H   0  0  0  0  0  0  0  0  0  0  0  0
   32.8534   27.8787   34.9144 H   0  0  0  0  0  0  0  0  0  0  0  0
   32.2645   27.1243   32.6240 H   0  0  0  0  0  0  0  0  0  0  0  0
   30.0102   26.3029   32.1005 H   0  0  0  0  0  0  0  0  0  0  0  0
   26.6941   26.1028   32.1054 H   0  0  0  0  0  0  0  0  0  0  0  0
   28.1316   25.0434   32.0893 H   0  0  0  0  0  0  0  0  0  0  0  0
   30.6789   26.1638   37.8479 H   0  0  0  0  0  0  0  0  0  0  0  0
   32.2388   26.8931   38.3511 H   0  0  0  0  0  0  0  0  0  0  0  0
   30.7484   27.1498   40.2450 H   0  0  0  0  0  0  0  0  0  0  0  0
   29.3879   27.7123   39.1956 H   0  0  0  0  0  0  0  0  0  0  0  0
   33.0309   32.0384   37.6353 H   0  0  0  0  0  0  0  0  0  0  0  0
   32.3662   33.1586   38.8843 H   0  0  0  0  0  0  0  0  0  0  0  0
   31.3353   32.6595   37.4845 H   0  0  0  0  0  0  0  0  0  0  0  0
   32.8132   29.3749   36.9618 H   0  0  0  0  0  0  0  0  0  0  0  0
   31.2623   30.0997   36.3687 H   0  0  0  0  0  0  0  0  0  0  0  0
  1  2  1  0
  2  3  2  0
  2  4  1  0
  4  5  2  0
  5  6  1  0
  6  7  2  0
  7  8  1  0
  8  9  2  0
  9 10  1  0
 10 11  2  0
 11 12  1  0
 12 13  2  0
 13 14  1  0
  8 15  1  0
 15 16  1  0
 16 17  1  0
 17 18  1  0
 18 19  1  0
 19 20  2  0
 20 21  1  0
 21 22  1  0
 21 23  1  0
 23 24  1  0
 19 25  1  0
 13  4  1  0
 24 15  1  0
 12  7  1  0
 23 18  2  0
  1 26  1  0
  1 27  1  0
  9 28  1  0
 10 29  1  0
 11 30  1  0
 14 31  1  0
 14 32  1  0
 16 33  1  0
 16 34  1  0
 17 35  1  0
 17 36  1  0
 22 37  1  0
 22 38  1  0
 22 39  1  0
 24 40  1  0
 24 41  1  0
M  END
$$$$
confid_6
     RDKit          3D

 41 44  0  0  0  0  0  0  0  0999 V2000
   24.6900   26.1200   35.5300 N   0  0  0  0  0  0  0  0  0  0  0  0
   25.6600   25.6700   34.6600 C   0  0  0  0  0  0  0  0  0  0  0  0
   25.2400   25.0100   33.7200 O   0  0  0  0  0  0  0  0  0  0  0  0
   27.0300   26.2200   34.8800 C   0  0  0  0  0  0  0  0  0  0  0  0
   27.3500   26.7300   36.0700 N   0  0  0  0  0  0  0  0  0  0  0  0
   28.5700   27.1800   36.3300 N   0  0  0  0  0  0  0  0  0  0  0  0
   29.5300   27.1100   35.3900 C   0  0  0  0  0  0  0  0  0  0  0  0
   30.8300   27.5700   35.6500 C   0  0  0  0  0  0  0  0  0  0  0  0
   31.8500   27.5400   34.6900 C   0  0  0  0  0  0  0  0  0  0  0  0
   31.5100   27.1200   33.4000 C   0  0  0  0  0  0  0  0  0  0  0  0
   30.2200   26.6300   33.1100 C   0  0  0  0  0  0  0  0  0  0  0  0
   29.2400   26.6600   34.1000 C   0  0  0  0  0  0  0  0  0  0  0  0
   27.9300   26.2600   33.8100 C   0  0  0  0  0  0  0  0  0  0  0  0
   27.5200   25.7100   32.6100 N   0  0  0  0  0  0  0  0  0  0  0  0
   31.1536   28.0714   36.9536 N   0  0  0  0  0  0  0  0  0  0  0  0
   31.5351   27.1210   38.0145 C   0  0  0  0  0  0  0  0  0  0  0  0
   32.6870   27.6824   38.8670 C   0  0  0  0  0  0  0  0  0  0  0  0
   32.4183   29.1165   39.1921 C   0  0  0  0  0  0  0  0  0  0  0  0
   32.9949   29.9467   40.1322 C   0  0  0  0  0  0  0  0  0  0  0  0
   32.5181   31.2010   39.9757 N   0  0  0  0  0  0  0  0  0  0  0  0
   31.6626   31.1791   38.9620 N   0  0  0  0  0  0  0  0  0  0  0  0
   30.9726   32.3577   38.4528 C   0  0  0  0  0  0  0  0  0  0  0  0
   31.6046   29.9326   38.4547 C   0  0  0  0  0  0  0  0  0  0  0  0
   30.7945   29.4604   37.2867 C   0  0  0  0  0  0  0  0  0  0  0  0
   34.1908   29.4912   41.3288 Cl  0  0  0  0  0  0  0  0  0  0  0  0
   24.8905   26.7920   36.3037 H   0  0  0  0  0  0  0  0  0  0  0  0
   23.6986   25.8060   35.4241 H   0  0  0  0  0  0  0  0  0  0  0  0
   32.8496   27.8888   34.9172 H   0  0  0  0  0  0  0  0  0  0  0  0
   32.2639   27.1264   32.6235 H   0  0  0  0  0  0  0  0  0  0  0  0
   30.0100   26.3034   32.1003 H   0  0  0  0  0  0  0  0  0  0  0  0
   26.6942   26.1027   32.1054 H   0  0  0  0  0  0  0  0  0  0  0  0
   28.1316   25.0434   32.0894 H   0  0  0  0  0  0  0  0  0  0  0  0
   30.6523   26.9298   38.6627 H   0  0  0  0  0  0  0  0  0  0  0  0
   31.8544   26.1509   37.5740 H   0  0  0  0  0  0  0  0  0  0  0  0
   32.7878   27.0911   39.8020 H   0  0  0  0  0  0  0  0  0  0  0  0
   33.6369   27.6176   38.2947 H   0  0  0  0  0  0  0  0  0  0  0  0
   31.4135   32.6549   37.4785 H   0  0  0  0  0  0  0  0  0  0  0  0
   29.8936   32.1341   38.3159 H   0  0  0  0  0  0  0  0  0  0  0  0
   31.0747   33.2003   39.1687 H   0  0  0  0  0  0  0  0  0  0  0  0
   29.7152   29.5158   37.5412 H   0  0  0  0  0  0  0  0  0  0  0  0
   30.9984   30.1222   36.4174 H   0  0  0  0  0  0  0  0  0  0  0  0
  1  2  1  0
  2  3  2  0
  2  4  1  0
  4  5  2  0
  5  6  1  0
  6  7  2  0
  7  8  1  0
  8  9  2  0
  9 10  1  0
 10 11  2  0
 11 12  1  0
 12 13  2  0
 13 14  1  0
  8 15  1  0
 15 16  1  0
 16 17  1  0
 17 18  1  0
 18 19  1  0
 19 20  2  0
 20 21  1  0
 21 22  1  0
 21 23  1  0
 23 24  1  0
 19 25  1  0
 13  4  1  0
 24 15  1  0
 12  7  1  0
 23 18  2  0
  1 26  1  0
  1 27  1  0
  9 28  1  0
 10 29  1  0
 11 30  1  0
 14 31  1  0
 14 32  1  0
 16 33  1  0
 16 34  1  0
 17 35  1  0
 17 36  1  0
 22 37  1  0
 22 38  1  0
 22 39  1  0
 24 40  1  0
 24 41  1  0
M  END
$$$$
confid_7
     RDKit          3D

 41 44  0  0  0  0  0  0  0  0999 V2000
   24.6900   26.1200   35.5300 N   0  0  0  0  0  0  0  0  0  0  0  0
   25.6600   25.6700   34.6600 C   0  0  0  0  0  0  0  0  0  0  0  0
   25.2400   25.0100   33.7200 O   0  0  0  0  0  0  0  0  0  0  0  0
   27.0300   26.2200   34.8800 C   0  0  0  0  0  0  0  0  0  0  0  0
   27.3500   26.7300   36.0700 N   0  0  0  0  0  0  0  0  0  0  0  0
   28.5700   27.1800   36.3300 N   0  0  0  0  0  0  0  0  0  0  0  0
   29.5300   27.1100   35.3900 C   0  0  0  0  0  0  0  0  0  0  0  0
   30.8300   27.5700   35.6500 C   0  0  0  0  0  0  0  0  0  0  0  0
   31.8500   27.5400   34.6900 C   0  0  0  0  0  0  0  0  0  0  0  0
   31.5100   27.1200   33.4000 C   0  0  0  0  0  0  0  0  0  0  0  0
   30.2200   26.6300   33.1100 C   0  0  0  0  0  0  0  0  0  0  0  0
   29.2400   26.6600   34.1000 C   0  0  0  0  0  0  0  0  0  0  0  0
   27.9300   26.2600   33.8100 C   0  0  0  0  0  0  0  0  0  0  0  0
   27.5200   25.7100   32.6100 N   0  0  0  0  0  0  0  0  0  0  0  0
   31.1561   28.0617   36.9566 N   0  0  0  0  0  0  0  0  0  0  0  0
   30.9032   29.4798   37.2719 C   0  0  0  0  0  0  0  0  0  0  0  0
   32.0473   30.0684   38.1162 C   0  0  0  0  0  0  0  0  0  0  0  0
   32.4210   29.1055   39.1965 C   0  0  0  0  0  0  0  0  0  0  0  0
   33.1776   29.2872   40.3365 C   0  0  0  0  0  0  0  0  0  0  0  0
   33.3619   28.0964   40.9470 N   0  0  0  0  0  0  0  0  0  0  0  0
   32.7420   27.1752   40.2209 N   0  0  0  0  0  0  0  0  0  0  0  0
   32.7673   25.7497   40.5228 C   0  0  0  0  0  0  0  0  0  0  0  0
   32.1884   27.7584   39.1400 C   0  0  0  0  0  0  0  0  0  0  0  0
   31.4322   27.0928   38.0312 C   0  0  0  0  0  0  0  0  0  0  0  0
   33.8529   30.8000   40.9069 Cl  0  0  0  0  0  0  0  0  0  0  0  0
   24.8913   26.7876   36.3074 H   0  0  0  0  0  0  0  0  0  0  0  0
   23.6977   25.8095   35.4214 H   0  0  0  0  0  0  0  0  0  0  0  0
   32.8504   27.8862   34.9179 H   0  0  0  0  0  0  0  0  0  0  0  0
   32.2655   27.1207   32.6251 H   0  0  0  0  0  0  0  0  0  0  0  0
   30.0114   26.2784   32.1079 H   0  0  0  0  0  0  0  0  0  0  0  0
   27.3416   24.6831   32.5416 H   0  0  0  0  0  0  0  0  0  0  0  0
   27.6976   26.2230   31.7183 H   0  0  0  0  0  0  0  0  0  0  0  0
   29.9478   29.5593   37.8347 H   0  0  0  0  0  0  0  0  0  0  0  0
   30.8011   30.0765   36.3387 H   0  0  0  0  0  0  0  0  0  0  0  0
   31.7310   31.0369   38.5592 H   0  0  0  0  0  0  0  0  0  0  0  0
   32.9339   30.2405   37.4691 H   0  0  0  0  0  0  0  0  0  0  0  0
   33.0736   25.5885   41.5779 H   0  0  0  0  0  0  0  0  0  0  0  0
   31.7574   25.3123   40.3758 H   0  0  0  0  0  0  0  0  0  0  0  0
   33.4907   25.2403   39.8525 H   0  0  0  0  0  0  0  0  0  0  0  0
   32.0413   26.2523   37.6345 H   0  0  0  0  0  0  0  0  0  0  0  0
   30.4753   26.6928   38.4275 H   0  0  0  0  0  0  0  0  0  0  0  0
  1  2  1  0
  2  3  2  0
  2  4  1  0
  4  5  2  0
  5  6  1  0
  6  7  2  0
  7  8  1  0
  8  9  2  0
  9 10  1  0
 10 11  2  0
 11 12  1  0
 12 13  2  0
 13 14  1  0
  8 15  1  0
 15 16  1  0
 16 17  1  0
 17 18  1  0
 18 19  1  0
 19 20  2  0
 20 21  1  0
 21 22  1  0
 21 23  1  0
 23 24  1  0
 19 25  1  0
 13  4  1  0
 24 15  1  0
 12  7  1  0
 23 18  2  0
  1 26  1  0
  1 27  1  0
  9 28  1  0
 10 29  1  0
 11 30  1  0
 14 31  1  0
 14 32  1  0
 16 33  1  0
 16 34  1  0
 17 35  1  0
 17 36  1  0
 22 37  1  0
 22 38  1  0
 22 39  1  0
 24 40  1  0
 24 41  1  0
M  END
$$$$
