confid_0
     RDKit          3D

 38 41  0  0  0  0  0  0  0  0999 V2000
   24.6900   26.1200   35.5300 N   0  0  0  0  0  0  0  0  0  0  0  0
   25.6600   25.6700   34.6600 C   0  0  0  0  0  0  0  0  0  0  0  0
   25.2400   25.0100   33.7200 O   0  0  0  0  0  0  0  0  0  0  0  0
   27.0300   26.2200   34.8800 C   0  0  0  0  0  0  0  0  0  0  0  0
   27.3500   26.7300   36.0700 N   0  0  0  0  0  0  0  0  0  0  0  0
   28.5700   27.1800   36.3300 N   0  0  0  0  0  0  0  0  0  0  0  0
   29.5300   27.1100   35.3900 C   0  0  0  0  0  0  0  0  0  0  0  0
   30.8300   27.5700   35.6500 C   0  0  0  0  0  0  0  0  0  0  0  0
   31.8500   27.5400   34.6900 C   0  0  0  0  0  0  0  0  0  0  0  0
   31.5100   27.1200   33.4000 C   0  0  0  0  0  0  0  0  0  0  0  0
   30.2200   26.6300   33.1100 C   0  0  0  0  0  0  0  0  0  0  0  0
   29.2400   26.6600   34.1000 C   0  0  0  0  0  0  0  0  0  0  0  0
   27.9300   26.2600   33.8100 C   0  0  0  0  0  0  0  0  0  0  0  0
   27.5200   25.7100   32.6100 N   0  0  0  0  0  0  0  0  0  0  0  0
   31.1541   28.0421   36.9688 N   0  0  0  0  0  0  0  0  0  0  0  0
   31.2004   27.1701   38.1427 C   0  0  0  0  0  0  0  0  0  0  0  0
   31.9992   27.9650   39.2027 C   0  0  0  0  0  0  0  0  0  0  0  0
   32.3257   29.2267   38.4806 C   0  0  0  0  0  0  0  0  0  0  0  0
   33.0301   30.3217   38.9800 C   0  0  0  0  0  0  0  0  0  0  0  0
   33.2086   31.4330   38.1425 C   0  0  0  0  0  0  0  0  0  0  0  0
   32.6744   31.4239   36.8383 C   0  0  0  0  0  0  0  0  0  0  0  0
   32.8670   32.8056   35.7697 Cl  0  0  0  0  0  0  0  0  0  0  0  0
   31.9724   30.2948   36.3930 C   0  0  0  0  0  0  0  0  0  0  0  0
   31.8398   29.2299   37.2314 N   0  0  0  0  0  0  0  0  0  0  0  0
   33.8427   32.4367   38.5641 O   0  0  0  0  0  0  0  0  0  0  0  0
   24.8908   26.7905   36.3051 H   0  0  0  0  0  0  0  0  0  0  0  0
   23.6981   25.8077   35.4227 H   0  0  0  0  0  0  0  0  0  0  0  0
   32.8549   27.8730   34.9174 H   0  0  0  0  0  0  0  0  0  0  0  0
   32.2663   27.1180   32.6258 H   0  0  0  0  0  0  0  0  0  0  0  0
   30.0116   26.2778   32.1080 H   0  0  0  0  0  0  0  0  0  0  0  0
   27.6979   26.2229   31.7183 H   0  0  0  0  0  0  0  0  0  0  0  0
   27.3414   24.6832   32.5416 H   0  0  0  0  0  0  0  0  0  0  0  0
   30.1724   26.9567   38.5046 H   0  0  0  0  0  0  0  0  0  0  0  0
   31.7231   26.2209   37.8942 H   0  0  0  0  0  0  0  0  0  0  0  0
   31.3753   28.1804   40.0964 H   0  0  0  0  0  0  0  0  0  0  0  0
   32.9299   27.4302   39.4891 H   0  0  0  0  0  0  0  0  0  0  0  0
   33.4230   30.3126   39.9893 H   0  0  0  0  0  0  0  0  0  0  0  0
   31.5380   30.2776   35.4018 H   0  0  0  0  0  0  0  0  0  0  0  0
  1  2  1  0
  2  3  2  0
  2  4  1  0
  4  5  2  0
  5  6  1  0
  6  7  2  0
  7  8  1  0
  8  9  2  0
  9 10  1  0
 10 11  2  0
 11 12  1  0
 12 13  2  0
 13 14  1  0
  8 15  1  0
 15 16  1  0
 16 17  1  0
 17 18  1  0
 18 19  2  0
 19 20  1  0
 20 21  1  0
 21 22  1  0
 21 23  2  0
 23 24  1  0
 20 25  2  0
 13  4  1  0
 24 15  1  0
 12  7  1  0
 24 18  1  0
  1 26  1  0
  1 27  1  0
  9 28  1  0
 10 29  1  0
 11 30  1  0
 14 31  1  0
 14 32  1  0
 16 33  1  0
 16 34  1  0
 17 35  1  0
 17 36  1  0
 19 37  1  0
 23 38  1  0
M  END
$$$$
confid_1
     RDKit          3D

 38 41  0  0  0  0  0  0  0  0999 V2000
   24.6900   26.1200   35.5300 N   0  0  0  0  0  0  0  0  0  0  0  0
   25.6600   25.6700   34.6600 C   0  0  0  0  0  0  0  0  0  0  0  0
   25.2400   25.0100   33.7200 O   0  0  0  0  0  0  0  0  0  0  0  0
   27.0300   26.2200   34.8800 C   0  0  0  0  0  0  0  0  0  0  0  0
   27.3500   26.7300   36.0700 N   0  0  0  0  0  0  0  0  0  0  0  0
   28.5700   27.1800   36.3300 N   0  0  0  0  0  0  0  0  0  0  0  0
   29.5300   27.1100   35.3900 C   0  0  0  0  0  0  0  0  0  0  0  0
   30.8300   27.5700   35.6500 C   0  0  0  0  0  0  0  0  0  0  0  0
   31.8500   27.5400   34.6900 C   0  0  0  0  0  0  0  0  0  0  0  0
   31.5100   27.1200   33.4000 C   0  0  0  0  0  0  0  0  0  0  0  0
   30.2200   26.6300   33.1100 C   0  0  0  0  0  0  0  0  0  0  0  0
   29.2400   26.6600   34.1000 C   0  0  0  0  0  0  0  0  0  0  0  0
   27.9300   26.2600   33.8100 C   0  0  0  0  0  0  0  0  0  0  0  0
   27.5200   25.7100   32.6100 N   0  0  0  0  0  0  0  0  0  0  0  0
   31.1405   28.0880   36.9545 N   0  0  0  0  0  0  0  0  0  0  0  0
   30.6200   29.3609   37.4536 C   0  0  0  0  0  0  0  0  0  0  0  0
   31.5324   29.7276   38.6480 C   0  0  0  0  0  0  0  0  0  0  0  0
   32.4951   28.5908   38.6789 C   0  0  0  0  0  0  0  0  0  0  0  0
   33.5416   28.4011   39.5808 C   0  0  0  0  0  0  0  0  0  0  0  0
   34.3224   27.2423   39.4557 C   0  0  0  0  0  0  0  0  0  0  0  0
   34.0334   26.3052   38.4434 C   0  0  0  0  0  0  0  0  0  0  0  0
   34.9825   24.8365   38.2693 Cl  0  0  0  0  0  0  0  0  0  0  0  0
   32.9659   26.5494   37.5679 C   0  0  0  0  0  0  0  0  0  0  0  0
   32.2461   27.6964   37.7122 N   0  0  0  0  0  0  0  0  0  0  0  0
   35.2767   27.0436   40.2540 O   0  0  0  0  0  0  0  0  0  0  0  0
   23.6981   25.8078   35.4227 H   0  0  0  0  0  0  0  0  0  0  0  0
   24.8908   26.7906   36.3050 H   0  0  0  0  0  0  0  0  0  0  0  0
   32.8477   27.8984   34.9102 H   0  0  0  0  0  0  0  0  0  0  0  0
   32.2633   27.1287   32.6229 H   0  0  0  0  0  0  0  0  0  0  0  0
   30.0099   26.3039   32.1002 H   0  0  0  0  0  0  0  0  0  0  0  0
   28.1317   25.0436   32.0892 H   0  0  0  0  0  0  0  0  0  0  0  0
   26.6941   26.1028   32.1054 H   0  0  0  0  0  0  0  0  0  0  0  0
   30.6861   30.1384   36.6617 H   0  0  0  0  0  0  0  0  0  0  0  0
   29.5669   29.2424   37.7856 H   0  0  0  0  0  0  0  0  0  0  0  0
   32.0675   30.6841   38.4663 H   0  0  0  0  0  0  0  0  0  0  0  0
   30.9541   29.7713   39.5956 H   0  0  0  0  0  0  0  0  0  0  0  0
   33.7400   29.1286   40.3583 H   0  0  0  0  0  0  0  0  0  0  0  0
   32.7166   25.8318   36.7968 H   0  0  0  0  0  0  0  0  0  0  0  0
  1  2  1  0
  2  3  2  0
  2  4  1  0
  4  5  2  0
  5  6  1  0
  6  7  2  0
  7  8  1  0
  8  9  2  0
  9 10  1  0
 10 11  2  0
 11 12  1  0
 12 13  2  0
 13 14  1  0
  8 15  1  0
 15 16  1  0
 16 17  1  0
 17 18  1  0
 18 19  2  0
 19 20  1  0
 20 21  1  0
 21 22  1  0
 21 23  2  0
 23 24  1  0
 20 25  2  0
 13  4  1  0
 24 15  1  0
 12  7  1  0
 24 18  1  0
  1 26  1  0
  1 27  1  0
  9 28  1  0
 10 29  1  0
 11 30  1  0
 14 31  1  0
 14 32  1  0
 16 33  1  0
 16 34  1  0
 17 35  1  0
 17 36  1  0
 19 37  1  0
 23 38  1  0
M  END
$$$$
confid_2
     RDKit          3D

 38 41  0  0  0  0  0  0  0  0999 V2000
   24.6900   26.1200   35.5300 N   0  0  0  0  0  0  0  0  0  0  0  0
   25.6600   25.6700   34.6600 C   0  0  0  0  0  0  0  0  0  0  0  0
   25.2400   25.0100   33.7200 O   0  0  0  0  0  0  0  0  0  0  0  0
   27.0300   26.2200   34.8800 C   0  0  0  0  0  0  0  0  0  0  0  0
   27.3500   26.7300   36.0700 N   0  0  0  0  0  0  0  0  0  0  0  0
   28.5700   27.1800   36.3300 N   0  0  0  0  0  0  0  0  0  0  0  0
   29.5300   27.1100   35.3900 C   0  0  0  0  0  0  0  0  0  0  0  0
   30.8300   27.5700   35.6500 C   0  0  0  0  0  0  0  0  0  0  0  0
   31.8500   27.5400   34.6900 C   0  0  0  0  0  0  0  0  0  0  0  0
   31.5100   27.1200   33.4000 C   0  0  0  0  0  0  0  0  0  0  0  0
   30.2200   26.6300   33.1100 C   0  0  0  0  0  0  0  0  0  0  0  0
   29.2400   26.6600   34.1000 C   0  0  0  0  0  0  0  0  0  0  0  0
   27.9300   26.2600   33.8100 C   0  0  0  0  0  0  0  0  0  0  0  0
   27.5200   25.7100   32.6100 N   0  0  0  0  0  0  0  0  0  0  0  0
   31.1566   28.0667   36.9571 N   0  0  0  0  0  0  0  0  0  0  0  0
   31.5084   29.4561   37.2375 C   0  0  0  0  0  0  0  0  0  0  0  0
   31.5412   29.5518   38.7819 C   0  0  0  0  0  0  0  0  0  0  0  0
   31.2179   28.1568   39.2001 C   0  0  0  0  0  0  0  0  0  0  0  0
   31.1476   27.6654   40.5032 C   0  0  0  0  0  0  0  0  0  0  0  0
   30.8622   26.3036   40.6835 C   0  0  0  0  0  0  0  0  0  0  0  0
   30.6656   25.4714   39.5629 C   0  0  0  0  0  0  0  0  0  0  0  0
   30.3216   23.7587   39.7540 Cl  0  0  0  0  0  0  0  0  0  0  0  0
   30.7534   26.0219   38.2765 C   0  0  0  0  0  0  0  0  0  0  0  0
   31.0084   27.3534   38.1477 N   0  0  0  0  0  0  0  0  0  0  0  0
   30.7885   25.8304   41.8488 O   0  0  0  0  0  0  0  0  0  0  0  0
   24.8909   26.7902   36.3053 H   0  0  0  0  0  0  0  0  0  0  0  0
   23.6981   25.8079   35.4226 H   0  0  0  0  0  0  0  0  0  0  0  0
   32.8514   27.8841   34.9159 H   0  0  0  0  0  0  0  0  0  0  0  0
   32.2642   27.1254   32.6237 H   0  0  0  0  0  0  0  0  0  0  0  0
   30.0101   26.3031   32.1004 H   0  0  0  0  0  0  0  0  0  0  0  0
   28.1316   25.0434   32.0893 H   0  0  0  0  0  0  0  0  0  0  0  0
   26.6941   26.1028   32.1054 H   0  0  0  0  0  0  0  0  0  0  0  0
   30.7364   30.1372   36.8185 H   0  0  0  0  0  0  0  0  0  0  0  0
   32.5045   29.6919   36.8054 H   0  0  0  0  0  0  0  0  0  0  0  0
   32.5507   29.8418   39.1440 H   0  0  0  0  0  0  0  0  0  0  0  0
   30.7687   30.2567   39.1568 H   0  0  0  0  0  0  0  0  0  0  0  0
   31.3153   28.3192   41.3502 H   0  0  0  0  0  0  0  0  0  0  0  0
   30.6244   25.3943   37.4042 H   0  0  0  0  0  0  0  0  0  0  0  0
  1  2  1  0
  2  3  2  0
  2  4  1  0
  4  5  2  0
  5  6  1  0
  6  7  2  0
  7  8  1  0
  8  9  2  0
  9 10  1  0
 10 11  2  0
 11 12  1  0
 12 13  2  0
 13 14  1  0
  8 15  1  0
 15 16  1  0
 16 17  1  0
 17 18  1  0
 18 19  2  0
 19 20  1  0
 20 21  1  0
 21 22  1  0
 21 23  2  0
 23 24  1  0
 20 25  2  0
 13  4  1  0
 24 15  1  0
 12  7  1  0
 24 18  1  0
  1 26  1  0
  1 27  1  0
  9 28  1  0
 10 29  1  0
 11 30  1  0
 14 31  1  0
 14 32  1  0
 16 33  1  0
 16 34  1  0
 17 35  1  0
 17 36  1  0
 19 37  1  0
 23 38  1  0
M  END
$$$$
confid_3
     RDKit          3D

 38 41  0  0  0  0  0  0  0  0999 V2000
   24.6900   26.1200   35.5300 N   0  0  0  0  0  0  0  0  0  0  0  0
   25.6600   25.6700   34.6600 C   0  0  0  0  0  0  0  0  0  0  0  0
   25.2400   25.0100   33.7200 O   0  0  0  0  0  0  0  0  0  0  0  0
   27.0300   26.2200   34.8800 C   0  0  0  0  0  0  0  0  0  0  0  0
   27.3500   26.7300   36.0700 N   0  0  0  0  0  0  0  0  0  0  0  0
   28.5700   27.1800   36.3300 N   0  0  0  0  0  0  0  0  0  0  0  0
   29.5300   27.1100   35.3900 C   0  0  0  0  0  0  0  0  0  0  0  0
   30.8300   27.5700   35.6500 C   0  0  0  0  0  0  0  0  0  0  0  0
   31.8500   27.5400   34.6900 C   0  0  0  0  0  0  0  0  0  0  0  0
   31.5100   27.1200   33.4000 C   0  0  0  0  0  0  0  0  0  0  0  0
   30.2200   26.6300   33.1100 C   0  0  0  0  0  0  0  0  0  0  0  0
   29.2400   26.6600   34.1000 C   0  0  0  0  0  0  0  0  0  0  0  0
   27.9300   26.2600   33.8100 C   0  0  0  0  0  0  0  0  0  0  0  0
   27.5200   25.7100   32.6100 N   0  0  0  0  0  0  0  0  0  0  0  0
   31.1552   28.0681   36.9567 N   0  0  0  0  0  0  0  0  0  0  0  0
   32.0593   27.3963   37.8862 C   0  0  0  0  0  0  0  0  0  0  0  0
   31.9131   28.1781   39.2141 C   0  0  0  0  0  0  0  0  0  0  0  0
   30.9306   29.2425   38.8572 C   0  0  0  0  0  0  0  0  0  0  0  0
   30.4570   30.2605   39.6842 C   0  0  0  0  0  0  0  0  0  0  0  0
   29.5553   31.1890   39.1424 C   0  0  0  0  0  0  0  0  0  0  0  0
   29.1604   31.0820   37.7935 C   0  0  0  0  0  0  0  0  0  0  0  0
   28.0438   32.2366   37.0807 Cl  0  0  0  0  0  0  0  0  0  0  0  0
   29.6741   30.0392   37.0096 C   0  0  0  0  0  0  0  0  0  0  0  0
   30.5287   29.1469   37.5821 N   0  0  0  0  0  0  0  0  0  0  0  0
   29.1069   32.1183   39.8654 O   0  0  0  0  0  0  0  0  0  0  0  0
   24.8907   26.7909   36.3047 H   0  0  0  0  0  0  0  0  0  0  0  0
   23.6982   25.8077   35.4228 H   0  0  0  0  0  0  0  0  0  0  0  0
   32.8496   27.8905   34.9142 H   0  0  0  0  0  0  0  0  0  0  0  0
   32.2637   27.1270   32.6233 H   0  0  0  0  0  0  0  0  0  0  0  0
   30.0100   26.3036   32.1003 H   0  0  0  0  0  0  0  0  0  0  0  0
   28.1317   25.0436   32.0892 H   0  0  0  0  0  0  0  0  0  0  0  0
   26.6941   26.1028   32.1054 H   0  0  0  0  0  0  0  0  0  0  0  0
   33.1029   27.4496   37.5088 H   0  0  0  0  0  0  0  0  0  0  0  0
   31.7517   26.3365   38.0188 H   0  0  0  0  0  0  0  0  0  0  0  0
   31.5053   27.5295   40.0187 H   0  0  0  0  0  0  0  0  0  0  0  0
   32.8804   28.6297   39.5218 H   0  0  0  0  0  0  0  0  0  0  0  0
   30.7830   30.3322   40.7145 H   0  0  0  0  0  0  0  0  0  0  0  0
   29.3961   29.9512   35.9673 H   0  0  0  0  0  0  0  0  0  0  0  0
  1  2  1  0
  2  3  2  0
  2  4  1  0
  4  5  2  0
  5  6  1  0
  6  7  2  0
  7  8  1  0
  8  9  2  0
  9 10  1  0
 10 11  2  0
 11 12  1  0
 12 13  2  0
 13 14  1  0
  8 15  1  0
 15 16  1  0
 16 17  1  0
 17 18  1  0
 18 19  2  0
 19 20  1  0
 20 21  1  0
 21 22  1  0
 21 23  2  0
 23 24  1  0
 20 25  2  0
 13  4  1  0
 24 15  1  0
 12  7  1  0
 24 18  1  0
  1 26  1  0
  1 27  1  0
  9 28  1  0
 10 29  1  0
 11 30  1  0
 14 31  1  0
 14 32  1  0
 16 33  1  0
 16 34  1  0
 17 35  1  0
 17 36  1  0
 19 37  1  0
 23 38  1  0
M  END
$$$$
