confid_0
     RDKit          3D

 40 43  0  0  0  0  0  0  0  0999 V2000
   25.3300   26.2600   34.7600 N   0  0  0  0  0  0  0  0  0  0  0  0
   26.1200   25.9200   33.6900 C   0  0  0  0  0  0  0  0  0  0  0  0
   25.6300   25.1100   32.9400 O   0  0  0  0  0  0  0  0  0  0  0  0
   27.5200   26.3800   33.4600 C   0  0  0  0  0  0  0  0  0  0  0  0
   28.1600   26.6300   34.6100 N   0  0  0  0  0  0  0  0  0  0  0  0
   29.4800   26.8500   34.5700 N   0  0  0  0  0  0  0  0  0  0  0  0
   30.1900   26.7800   33.4400 C   0  0  0  0  0  0  0  0  0  0  0  0
   31.5600   27.0500   33.5000 C   0  0  0  0  0  0  0  0  0  0  0  0
   32.2700   27.2400   32.3100 C   0  0  0  0  0  0  0  0  0  0  0  0
   31.6100   27.2500   31.0800 C   0  0  0  0  0  0  0  0  0  0  0  0
   30.2700   26.8700   31.0600 C   0  0  0  0  0  0  0  0  0  0  0  0
   29.5100   26.6900   32.2300 C   0  0  0  0  0  0  0  0  0  0  0  0
   28.1400   26.4100   32.2000 C   0  0  0  0  0  0  0  0  0  0  0  0
   27.4300   26.1300   31.0500 N   0  0  0  0  0  0  0  0  0  0  0  0
   23.9002   26.0863   34.8375 C   0  0  0  0  0  0  0  0  0  0  0  0
   23.1734   25.7458   33.7269 N   0  0  0  0  0  0  0  0  0  0  0  0
   21.8267   25.6024   33.8090 C   0  0  0  0  0  0  0  0  0  0  0  0
   20.8883   25.2476   32.6933 C   0  0  0  0  0  0  0  0  0  0  0  0
   19.5870   25.2244   33.3677 N   0  0  0  0  0  0  0  0  0  0  0  0
   19.7585   25.5868   34.7336 C   0  0  0  0  0  0  0  0  0  0  0  0
   18.8177   25.7138   35.5609 O   0  0  0  0  0  0  0  0  0  0  0  0
   21.1598   25.8035   34.9940 C   0  0  0  0  0  0  0  0  0  0  0  0
   21.8426   26.1616   36.1506 C   0  0  0  0  0  0  0  0  0  0  0  0
   21.1870   26.3673   37.3195 F   0  0  0  0  0  0  0  0  0  0  0  0
   23.2361   26.3063   36.0691 C   0  0  0  0  0  0  0  0  0  0  0  0
   18.3884   25.1628   32.7297 O   0  0  0  0  0  0  0  0  0  0  0  0
   18.0008   23.8124   32.7380 C   0  0  0  0  0  0  0  0  0  0  0  0
   25.7935   26.7312   35.5693 H   0  0  0  0  0  0  0  0  0  0  0  0
   32.0668   27.1429   34.4530 H   0  0  0  0  0  0  0  0  0  0  0  0
   33.3284   27.4627   32.3495 H   0  0  0  0  0  0  0  0  0  0  0  0
   32.1496   27.4414   30.1613 H   0  0  0  0  0  0  0  0  0  0  0  0
   29.7983   26.8254   30.0886 H   0  0  0  0  0  0  0  0  0  0  0  0
   26.4123   26.3490   30.9739 H   0  0  0  0  0  0  0  0  0  0  0  0
   27.8914   25.7241   30.2071 H   0  0  0  0  0  0  0  0  0  0  0  0
   21.1282   24.2479   32.2745 H   0  0  0  0  0  0  0  0  0  0  0  0
   20.9033   26.0330   31.9084 H   0  0  0  0  0  0  0  0  0  0  0  0
   23.7969   26.5856   36.9522 H   0  0  0  0  0  0  0  0  0  0  0  0
   17.0169   23.7204   32.2339 H   0  0  0  0  0  0  0  0  0  0  0  0
   18.7322   23.1867   32.1802 H   0  0  0  0  0  0  0  0  0  0  0  0
   17.8894   23.4373   33.7797 H   0  0  0  0  0  0  0  0  0  0  0  0
  1  2  1  0
  2  3  2  0
  2  4  1  0
  4  5  2  0
  5  6  1  0
  6  7  2  0
  7  8  1  0
  8  9  2  0
  9 10  1  0
 10 11  2  0
 11 12  1  0
 12 13  2  0
 13 14  1  0
  1 15  1  0
 15 16  2  0
 16 17  1  0
 17 18  1  0
 18 19  1  0
 19 20  1  0
 20 21  2  0
 20 22  1  0
 22 23  1  0
 23 24  1  0
 23 25  2  0
 19 26  1  0
 26 27  1  0
 13  4  1  0
 25 15  1  0
 12  7  1  0
 22 17  2  0
  1 28  1  0
  8 29  1  0
  9 30  1  0
 10 31  1  0
 11 32  1  0
 14 33  1  0
 14 34  1  0
 18 35  1  0
 18 36  1  0
 25 37  1  0
 27 38  1  0
 27 39  1  0
 27 40  1  0
M  END
$$$$
confid_1
     RDKit          3D

 40 43  0  0  0  0  0  0  0  0999 V2000
   25.3300   26.2600   34.7600 N   0  0  0  0  0  0  0  0  0  0  0  0
   26.1200   25.9200   33.6900 C   0  0  0  0  0  0  0  0  0  0  0  0
   25.6300   25.1100   32.9400 O   0  0  0  0  0  0  0  0  0  0  0  0
   27.5200   26.3800   33.4600 C   0  0  0  0  0  0  0  0  0  0  0  0
   28.1600   26.6300   34.6100 N   0  0  0  0  0  0  0  0  0  0  0  0
   29.4800   26.8500   34.5700 N   0  0  0  0  0  0  0  0  0  0  0  0
   30.1900   26.7800   33.4400 C   0  0  0  0  0  0  0  0  0  0  0  0
   31.5600   27.0500   33.5000 C   0  0  0  0  0  0  0  0  0  0  0  0
   32.2700   27.2400   32.3100 C   0  0  0  0  0  0  0  0  0  0  0  0
   31.6100   27.2500   31.0800 C   0  0  0  0  0  0  0  0  0  0  0  0
   30.2700   26.8700   31.0600 C   0  0  0  0  0  0  0  0  0  0  0  0
   29.5100   26.6900   32.2300 C   0  0  0  0  0  0  0  0  0  0  0  0
   28.1400   26.4100   32.2000 C   0  0  0  0  0  0  0  0  0  0  0  0
   27.4300   26.1300   31.0500 N   0  0  0  0  0  0  0  0  0  0  0  0
   24.1496   25.5603   35.2061 C   0  0  0  0  0  0  0  0  0  0  0  0
   23.8344   24.3236   34.7075 N   0  0  0  0  0  0  0  0  0  0  0  0
   22.7304   23.6695   35.1485 C   0  0  0  0  0  0  0  0  0  0  0  0
   22.2533   22.3139   34.7173 C   0  0  0  0  0  0  0  0  0  0  0  0
   21.0305   22.1413   35.5070 N   0  0  0  0  0  0  0  0  0  0  0  0
   20.8537   23.2720   36.3536 C   0  0  0  0  0  0  0  0  0  0  0  0
   19.9245   23.3944   37.1946 O   0  0  0  0  0  0  0  0  0  0  0  0
   21.9120   24.2192   36.1063 C   0  0  0  0  0  0  0  0  0  0  0  0
   22.1874   25.4653   36.6571 C   0  0  0  0  0  0  0  0  0  0  0  0
   21.3859   26.0074   37.6069 F   0  0  0  0  0  0  0  0  0  0  0  0
   23.3264   26.1454   36.1993 C   0  0  0  0  0  0  0  0  0  0  0  0
   20.3495   20.9713   35.6288 O   0  0  0  0  0  0  0  0  0  0  0  0
   19.2983   21.0225   34.6979 C   0  0  0  0  0  0  0  0  0  0  0  0
   25.6207   27.1023   35.3065 H   0  0  0  0  0  0  0  0  0  0  0  0
   32.0668   27.1429   34.4530 H   0  0  0  0  0  0  0  0  0  0  0  0
   33.3284   27.4627   32.3495 H   0  0  0  0  0  0  0  0  0  0  0  0
   32.1496   27.4414   30.1613 H   0  0  0  0  0  0  0  0  0  0  0  0
   29.7983   26.8254   30.0886 H   0  0  0  0  0  0  0  0  0  0  0  0
   26.4124   26.3493   30.9737 H   0  0  0  0  0  0  0  0  0  0  0  0
   27.8914   25.7239   30.2072 H   0  0  0  0  0  0  0  0  0  0  0  0
   22.0214   22.3006   33.6317 H   0  0  0  0  0  0  0  0  0  0  0  0
   22.9995   21.5362   34.9846 H   0  0  0  0  0  0  0  0  0  0  0  0
   23.5690   27.1175   36.6096 H   0  0  0  0  0  0  0  0  0  0  0  0
   18.6173   21.8756   34.9140 H   0  0  0  0  0  0  0  0  0  0  0  0
   18.7087   20.0860   34.7736 H   0  0  0  0  0  0  0  0  0  0  0  0
   19.6916   21.0978   33.6600 H   0  0  0  0  0  0  0  0  0  0  0  0
  1  2  1  0
  2  3  2  0
  2  4  1  0
  4  5  2  0
  5  6  1  0
  6  7  2  0
  7  8  1  0
  8  9  2  0
  9 10  1  0
 10 11  2  0
 11 12  1  0
 12 13  2  0
 13 14  1  0
  1 15  1  0
 15 16  2  0
 16 17  1  0
 17 18  1  0
 18 19  1  0
 19 20  1  0
 20 21  2  0
 20 22  1  0
 22 23  1  0
 23 24  1  0
 23 25  2  0
 19 26  1  0
 26 27  1  0
 13  4  1  0
 25 15  1  0
 12  7  1  0
 22 17  2  0
  1 28  1  0
  8 29  1  0
  9 30  1  0
 10 31  1  0
 11 32  1  0
 14 33  1  0
 14 34  1  0
 18 35  1  0
 18 36  1  0
 25 37  1  0
 27 38  1  0
 27 39  1  0
 27 40  1  0
M  END
$$$$
confid_2
     RDKit          3D

 40 43  0  0  0  0  0  0  0  0999 V2000
   25.3300   26.2600   34.7600 N   0  0  0  0  0  0  0  0  0  0  0  0
   26.1200   25.9200   33.6900 C   0  0  0  0  0  0  0  0  0  0  0  0
   25.6300   25.1100   32.9400 O   0  0  0  0  0  0  0  0  0  0  0  0
   27.5200   26.3800   33.4600 C   0  0  0  0  0  0  0  0  0  0  0  0
   28.1600   26.6300   34.6100 N   0  0  0  0  0  0  0  0  0  0  0  0
   29.4800   26.8500   34.5700 N   0  0  0  0  0  0  0  0  0  0  0  0
   30.1900   26.7800   33.4400 C   0  0  0  0  0  0  0  0  0  0  0  0
   31.5600   27.0500   33.5000 C   0  0  0  0  0  0  0  0  0  0  0  0
   32.2700   27.2400   32.3100 C   0  0  0  0  0  0  0  0  0  0  0  0
   31.6100   27.2500   31.0800 C   0  0  0  0  0  0  0  0  0  0  0  0
   30.2700   26.8700   31.0600 C   0  0  0  0  0  0  0  0  0  0  0  0
   29.5100   26.6900   32.2300 C   0  0  0  0  0  0  0  0  0  0  0  0
   28.1400   26.4100   32.2000 C   0  0  0  0  0  0  0  0  0  0  0  0
   27.4300   26.1300   31.0500 N   0  0  0  0  0  0  0  0  0  0  0  0
   23.8913   26.2146   34.7791 C   0  0  0  0  0  0  0  0  0  0  0  0
   23.2539   26.0315   35.9758 N   0  0  0  0  0  0  0  0  0  0  0  0
   21.8982   26.0130   36.0332 C   0  0  0  0  0  0  0  0  0  0  0  0
   21.0504   25.8091   37.2544 C   0  0  0  0  0  0  0  0  0  0  0  0
   19.6903   25.9183   36.7190 N   0  0  0  0  0  0  0  0  0  0  0  0
   19.7534   26.1145   35.3105 C   0  0  0  0  0  0  0  0  0  0  0  0
   18.7484   26.1919   34.5559 O   0  0  0  0  0  0  0  0  0  0  0  0
   21.1346   26.1853   34.9034 C   0  0  0  0  0  0  0  0  0  0  0  0
   21.7245   26.3943   33.6625 C   0  0  0  0  0  0  0  0  0  0  0  0
   20.9732   26.5849   32.5500 F   0  0  0  0  0  0  0  0  0  0  0  0
   23.1261   26.4172   33.5994 C   0  0  0  0  0  0  0  0  0  0  0  0
   18.5628   25.5896   37.4034 O   0  0  0  0  0  0  0  0  0  0  0  0
   18.0537   26.7874   37.9327 C   0  0  0  0  0  0  0  0  0  0  0  0
   25.8020   26.5589   35.6427 H   0  0  0  0  0  0  0  0  0  0  0  0
   32.0668   27.1429   34.4530 H   0  0  0  0  0  0  0  0  0  0  0  0
   33.3284   27.4627   32.3495 H   0  0  0  0  0  0  0  0  0  0  0  0
   32.1496   27.4414   30.1613 H   0  0  0  0  0  0  0  0  0  0  0  0
   29.7983   26.8254   30.0886 H   0  0  0  0  0  0  0  0  0  0  0  0
   26.4122   26.3489   30.9741 H   0  0  0  0  0  0  0  0  0  0  0  0
   27.8914   25.7243   30.2070 H   0  0  0  0  0  0  0  0  0  0  0  0
   21.2187   24.7974   37.6799 H   0  0  0  0  0  0  0  0  0  0  0  0
   21.2381   26.6041   38.0062 H   0  0  0  0  0  0  0  0  0  0  0  0
   23.6066   26.6131   32.6499 H   0  0  0  0  0  0  0  0  0  0  0  0
   17.1224   26.5630   38.4920 H   0  0  0  0  0  0  0  0  0  0  0  0
   17.8021   27.5055   37.1208 H   0  0  0  0  0  0  0  0  0  0  0  0
   18.7777   27.2467   38.6416 H   0  0  0  0  0  0  0  0  0  0  0  0
  1  2  1  0
  2  3  2  0
  2  4  1  0
  4  5  2  0
  5  6  1  0
  6  7  2  0
  7  8  1  0
  8  9  2  0
  9 10  1  0
 10 11  2  0
 11 12  1  0
 12 13  2  0
 13 14  1  0
  1 15  1  0
 15 16  2  0
 16 17  1  0
 17 18  1  0
 18 19  1  0
 19 20  1  0
 20 21  2  0
 20 22  1  0
 22 23  1  0
 23 24  1  0
 23 25  2  0
 19 26  1  0
 26 27  1  0
 13  4  1  0
 25 15  1  0
 12  7  1  0
 22 17  2  0
  1 28  1  0
  8 29  1  0
  9 30  1  0
 10 31  1  0
 11 32  1  0
 14 33  1  0
 14 34  1  0
 18 35  1  0
 18 36  1  0
 25 37  1  0
 27 38  1  0
 27 39  1  0
 27 40  1  0
M  END
$$$$
confid_3
     RDKit          3D

 40 43  0  0  0  0  0  0  0  0999 V2000
   25.3300   26.2600   34.7600 N   0  0  0  0  0  0  0  0  0  0  0  0
   26.1200   25.9200   33.6900 C   0  0  0  0  0  0  0  0  0  0  0  0
   25.6300   25.1100   32.9400 O   0  0  0  0  0  0  0  0  0  0  0  0
   27.5200   26.3800   33.4600 C   0  0  0  0  0  0  0  0  0  0  0  0
   28.1600   26.6300   34.6100 N   0  0  0  0  0  0  0  0  0  0  0  0
   29.4800   26.8500   34.5700 N   0  0  0  0  0  0  0  0  0  0  0  0
   30.1900   26.7800   33.4400 C   0  0  0  0  0  0  0  0  0  0  0  0
   31.5600   27.0500   33.5000 C   0  0  0  0  0  0  0  0  0  0  0  0
   32.2700   27.2400   32.3100 C   0  0  0  0  0  0  0  0  0  0  0  0
   31.6100   27.2500   31.0800 C   0  0  0  0  0  0  0  0  0  0  0  0
   30.2700   26.8700   31.0600 C   0  0  0  0  0  0  0  0  0  0  0  0
   29.5100   26.6900   32.2300 C   0  0  0  0  0  0  0  0  0  0  0  0
   28.1400   26.4100   32.2000 C   0  0  0  0  0  0  0  0  0  0  0  0
   27.4300   26.1300   31.0500 N   0  0  0  0  0  0  0  0  0  0  0  0
   24.1496   25.5604   35.2063 C   0  0  0  0  0  0  0  0  0  0  0  0
   23.8320   24.3254   34.7050 N   0  0  0  0  0  0  0  0  0  0  0  0
   22.7301   23.6699   35.1491 C   0  0  0  0  0  0  0  0  0  0  0  0
   22.2359   22.3276   34.6960 C   0  0  0  0  0  0  0  0  0  0  0  0
   21.0445   22.1305   35.5268 N   0  0  0  0  0  0  0  0  0  0  0  0
   20.8450   23.2794   36.3434 C   0  0  0  0  0  0  0  0  0  0  0  0
   19.8720   23.4367   37.1270 O   0  0  0  0  0  0  0  0  0  0  0  0
   21.9115   24.2201   36.1064 C   0  0  0  0  0  0  0  0  0  0  0  0
   22.1858   25.4672   36.6553 C   0  0  0  0  0  0  0  0  0  0  0  0
   21.3817   26.0118   37.6015 F   0  0  0  0  0  0  0  0  0  0  0  0
   23.3266   26.1457   36.1997 C   0  0  0  0  0  0  0  0  0  0  0  0
   20.1223   21.1509   35.3333 O   0  0  0  0  0  0  0  0  0  0  0  0
   20.4558   20.1090   36.2150 C   0  0  0  0  0  0  0  0  0  0  0  0
   25.6210   27.1020   35.3068 H   0  0  0  0  0  0  0  0  0  0  0  0
   32.0668   27.1429   34.4530 H   0  0  0  0  0  0  0  0  0  0  0  0
   33.3284   27.4627   32.3495 H   0  0  0  0  0  0  0  0  0  0  0  0
   32.1496   27.4414   30.1613 H   0  0  0  0  0  0  0  0  0  0  0  0
   29.7983   26.8254   30.0886 H   0  0  0  0  0  0  0  0  0  0  0  0
   27.8914   25.7239   30.2072 H   0  0  0  0  0  0  0  0  0  0  0  0
   26.4124   26.3493   30.9737 H   0  0  0  0  0  0  0  0  0  0  0  0
   21.9576   22.3585   33.6215 H   0  0  0  0  0  0  0  0  0  0  0  0
   22.9883   21.5371   34.8999 H   0  0  0  0  0  0  0  0  0  0  0  0
   23.5695   27.1177   36.6100 H   0  0  0  0  0  0  0  0  0  0  0  0
   19.7168   19.2903   36.0956 H   0  0  0  0  0  0  0  0  0  0  0  0
   21.4631   19.6991   35.9809 H   0  0  0  0  0  0  0  0  0  0  0  0
   20.4173   20.4550   37.2718 H   0  0  0  0  0  0  0  0  0  0  0  0
  1  2  1  0
  2  3  2  0
  2  4  1  0
  4  5  2  0
  5  6  1  0
  6  7  2  0
  7  8  1  0
  8  9  2  0
  9 10  1  0
 10 11  2  0
 11 12  1  0
 12 13  2  0
 13 14  1  0
  1 15  1  0
 15 16  2  0
 16 17  1  0
 17 18  1  0
 18 19  1  0
 19 20  1  0
 20 21  2  0
 20 22  1  0
 22 23  1  0
 23 24  1  0
 23 25  2  0
 19 26  1  0
 26 27  1  0
 13  4  1  0
 25 15  1  0
 12  7  1  0
 22 17  2  0
  1 28  1  0
  8 29  1  0
  9 30  1  0
 10 31  1  0
 11 32  1  0
 14 33  1  0
 14 34  1  0
 18 35  1  0
 18 36  1  0
 25 37  1  0
 27 38  1  0
 27 39  1  0
 27 40  1  0
M  END
$$$$
confid_4
     RDKit          3D

 40 43  0  0  0  0  0  0  0  0999 V2000
   25.3300   26.2600   34.7600 N   0  0  0  0  0  0  0  0  0  0  0  0
   26.1200   25.9200   33.6900 C   0  0  0  0  0  0  0  0  0  0  0  0
   25.6300   25.1100   32.9400 O   0  0  0  0  0  0  0  0  0  0  0  0
   27.5200   26.3800   33.4600 C   0  0  0  0  0  0  0  0  0  0  0  0
   28.1600   26.6300   34.6100 N   0  0  0  0  0  0  0  0  0  0  0  0
   29.4800   26.8500   34.5700 N   0  0  0  0  0  0  0  0  0  0  0  0
   30.1900   26.7800   33.4400 C   0  0  0  0  0  0  0  0  0  0  0  0
   31.5600   27.0500   33.5000 C   0  0  0  0  0  0  0  0  0  0  0  0
   32.2700   27.2400   32.3100 C   0  0  0  0  0  0  0  0  0  0  0  0
   31.6100   27.2500   31.0800 C   0  0  0  0  0  0  0  0  0  0  0  0
   30.2700   26.8700   31.0600 C   0  0  0  0  0  0  0  0  0  0  0  0
   29.5100   26.6900   32.2300 C   0  0  0  0  0  0  0  0  0  0  0  0
   28.1400   26.4100   32.2000 C   0  0  0  0  0  0  0  0  0  0  0  0
   27.4300   26.1300   31.0500 N   0  0  0  0  0  0  0  0  0  0  0  0
   23.9011   26.0800   34.8414 C   0  0  0  0  0  0  0  0  0  0  0  0
   23.1736   25.7285   33.7348 N   0  0  0  0  0  0  0  0  0  0  0  0
   21.8273   25.5829   33.8197 C   0  0  0  0  0  0  0  0  0  0  0  0
   20.8914   25.1901   32.7147 C   0  0  0  0  0  0  0  0  0  0  0  0
   19.5853   25.2184   33.3792 N   0  0  0  0  0  0  0  0  0  0  0  0
   19.7633   25.5460   34.7531 C   0  0  0  0  0  0  0  0  0  0  0  0
   18.8334   25.5940   35.6007 O   0  0  0  0  0  0  0  0  0  0  0  0
   21.1625   25.7844   35.0059 C   0  0  0  0  0  0  0  0  0  0  0  0
   21.8467   26.1473   36.1601 C   0  0  0  0  0  0  0  0  0  0  0  0
   21.1937   26.3492   37.3310 F   0  0  0  0  0  0  0  0  0  0  0  0
   23.2390   26.3015   36.0739 C   0  0  0  0  0  0  0  0  0  0  0  0
   18.4372   24.7237   32.8457 O   0  0  0  0  0  0  0  0  0  0  0  0
   17.7582   25.8148   32.2778 C   0  0  0  0  0  0  0  0  0  0  0  0
   25.7930   26.7357   35.5670 H   0  0  0  0  0  0  0  0  0  0  0  0
   32.0668   27.1425   34.4530 H   0  0  0  0  0  0  0  0  0  0  0  0
   33.3288   27.4608   32.3494 H   0  0  0  0  0  0  0  0  0  0  0  0
   32.1515   27.4335   30.1608 H   0  0  0  0  0  0  0  0  0  0  0  0
   29.8039   26.7906   30.0880 H   0  0  0  0  0  0  0  0  0  0  0  0
   27.5769   26.6941   30.1847 H   0  0  0  0  0  0  0  0  0  0  0  0
   26.8603   25.2630   30.9529 H   0  0  0  0  0  0  0  0  0  0  0  0
   21.1215   24.1643   32.3570 H   0  0  0  0  0  0  0  0  0  0  0  0
   20.9230   25.9277   31.8856 H   0  0  0  0  0  0  0  0  0  0  0  0
   23.8005   26.5867   36.9545 H   0  0  0  0  0  0  0  0  0  0  0  0
   18.3592   26.2745   31.4622 H   0  0  0  0  0  0  0  0  0  0  0  0
   17.5132   26.5765   33.0511 H   0  0  0  0  0  0  0  0  0  0  0  0
   16.8056   25.4534   31.8392 H   0  0  0  0  0  0  0  0  0  0  0  0
  1  2  1  0
  2  3  2  0
  2  4  1  0
  4  5  2  0
  5  6  1  0
  6  7  2  0
  7  8  1  0
  8  9  2  0
  9 10  1  0
 10 11  2  0
 11 12  1  0
 12 13  2  0
 13 14  1  0
  1 15  1  0
 15 16  2  0
 16 17  1  0
 17 18  1  0
 18 19  1  0
 19 20  1  0
 20 21  2  0
 20 22  1  0
 22 23  1  0
 23 24  1  0
 23 25  2  0
 19 26  1  0
 26 27  1  0
 13  4  1  0
 25 15  1  0
 12  7  1  0
 22 17  2  0
  1 28  1  0
  8 29  1  0
  9 30  1  0
 10 31  1  0
 11 32  1  0
 14 33  1  0
 14 34  1  0
 18 35  1  0
 18 36  1  0
 25 37  1  0
 27 38  1  0
 27 39  1  0
 27 40  1  0
M  END
$$$$
confid_5
     RDKit          3D

 40 43  0  0  0  0  0  0  0  0999 V2000
   25.3300   26.2600   34.7600 N   0  0  0  0  0  0  0  0  0  0  0  0
   26.1200   25.9200   33.6900 C   0  0  0  0  0  0  0  0  0  0  0  0
   25.6300   25.1100   32.9400 O   0  0  0  0  0  0  0  0  0  0  0  0
   27.5200   26.3800   33.4600 C   0  0  0  0  0  0  0  0  0  0  0  0
   28.1600   26.6300   34.6100 N   0  0  0  0  0  0  0  0  0  0  0  0
   29.4800   26.8500   34.5700 N   0  0  0  0  0  0  0  0  0  0  0  0
   30.1900   26.7800   33.4400 C   0  0  0  0  0  0  0  0  0  0  0  0
   31.5600   27.0500   33.5000 C   0  0  0  0  0  0  0  0  0  0  0  0
   32.2700   27.2400   32.3100 C   0  0  0  0  0  0  0  0  0  0  0  0
   31.6100   27.2500   31.0800 C   0  0  0  0  0  0  0  0  0  0  0  0
   30.2700   26.8700   31.0600 C   0  0  0  0  0  0  0  0  0  0  0  0
   29.5100   26.6900   32.2300 C   0  0  0  0  0  0  0  0  0  0  0  0
   28.1400   26.4100   32.2000 C   0  0  0  0  0  0  0  0  0  0  0  0
   27.4300   26.1300   31.0500 N   0  0  0  0  0  0  0  0  0  0  0  0
   23.8914   26.2132   34.7795 C   0  0  0  0  0  0  0  0  0  0  0  0
   23.2543   26.0321   35.9767 N   0  0  0  0  0  0  0  0  0  0  0  0
   21.8988   26.0084   36.0338 C   0  0  0  0  0  0  0  0  0  0  0  0
   21.0512   25.8327   37.2596 C   0  0  0  0  0  0  0  0  0  0  0  0
   19.6910   25.8847   36.7159 N   0  0  0  0  0  0  0  0  0  0  0  0
   19.7537   26.1239   35.3141 C   0  0  0  0  0  0  0  0  0  0  0  0
   18.7484   26.2806   34.5722 O   0  0  0  0  0  0  0  0  0  0  0  0
   21.1347   26.1819   34.9045 C   0  0  0  0  0  0  0  0  0  0  0  0
   21.7242   26.3952   33.6641 C   0  0  0  0  0  0  0  0  0  0  0  0
   20.9725   26.5913   32.5528 F   0  0  0  0  0  0  0  0  0  0  0  0
   23.1258   26.4162   33.6001 C   0  0  0  0  0  0  0  0  0  0  0  0
   18.5634   25.9897   37.4675 O   0  0  0  0  0  0  0  0  0  0  0  0
   18.0570   24.6870   37.6116 C   0  0  0  0  0  0  0  0  0  0  0  0
   25.8019   26.5598   35.6424 H   0  0  0  0  0  0  0  0  0  0  0  0
   32.0668   27.1429   34.4530 H   0  0  0  0  0  0  0  0  0  0  0  0
   33.3284   27.4627   32.3495 H   0  0  0  0  0  0  0  0  0  0  0  0
   32.1496   27.4414   30.1613 H   0  0  0  0  0  0  0  0  0  0  0  0
   29.7983   26.8254   30.0886 H   0  0  0  0  0  0  0  0  0  0  0  0
   27.8914   25.7243   30.2070 H   0  0  0  0  0  0  0  0  0  0  0  0
   26.4122   26.3489   30.9741 H   0  0  0  0  0  0  0  0  0  0  0  0
   21.2425   24.8494   37.7380 H   0  0  0  0  0  0  0  0  0  0  0  0
   21.2163   26.6706   37.9694 H   0  0  0  0  0  0  0  0  0  0  0  0
   23.6059   26.6132   32.6507 H   0  0  0  0  0  0  0  0  0  0  0  0
   18.7825   24.0371   38.1490 H   0  0  0  0  0  0  0  0  0  0  0  0
   17.1257   24.7306   38.2127 H   0  0  0  0  0  0  0  0  0  0  0  0
   17.8062   24.2464   36.6211 H   0  0  0  0  0  0  0  0  0  0  0  0
  1  2  1  0
  2  3  2  0
  2  4  1  0
  4  5  2  0
  5  6  1  0
  6  7  2  0
  7  8  1  0
  8  9  2  0
  9 10  1  0
 10 11  2  0
 11 12  1  0
 12 13  2  0
 13 14  1  0
  1 15  1  0
 15 16  2  0
 16 17  1  0
 17 18  1  0
 18 19  1  0
 19 20  1  0
 20 21  2  0
 20 22  1  0
 22 23  1  0
 23 24  1  0
 23 25  2  0
 19 26  1  0
 26 27  1  0
 13  4  1  0
 25 15  1  0
 12  7  1  0
 22 17  2  0
  1 28  1  0
  8 29  1  0
  9 30  1  0
 10 31  1  0
 11 32  1  0
 14 33  1  0
 14 34  1  0
 18 35  1  0
 18 36  1  0
 25 37  1  0
 27 38  1  0
 27 39  1  0
 27 40  1  0
M  END
$$$$
confid_6
     RDKit          3D

 40 43  0  0  0  0  0  0  0  0999 V2000
   25.3300   26.2600   34.7600 N   0  0  0  0  0  0  0  0  0  0  0  0
   26.1200   25.9200   33.6900 C   0  0  0  0  0  0  0  0  0  0  0  0
   25.6300   25.1100   32.9400 O   0  0  0  0  0  0  0  0  0  0  0  0
   27.5200   26.3800   33.4600 C   0  0  0  0  0  0  0  0  0  0  0  0
   28.1600   26.6300   34.6100 N   0  0  0  0  0  0  0  0  0  0  0  0
   29.4800   26.8500   34.5700 N   0  0  0  0  0  0  0  0  0  0  0  0
   30.1900   26.7800   33.4400 C   0  0  0  0  0  0  0  0  0  0  0  0
   31.5600   27.0500   33.5000 C   0  0  0  0  0  0  0  0  0  0  0  0
   32.2700   27.2400   32.3100 C   0  0  0  0  0  0  0  0  0  0  0  0
   31.6100   27.2500   31.0800 C   0  0  0  0  0  0  0  0  0  0  0  0
   30.2700   26.8700   31.0600 C   0  0  0  0  0  0  0  0  0  0  0  0
   29.5100   26.6900   32.2300 C   0  0  0  0  0  0  0  0  0  0  0  0
   28.1400   26.4100   32.2000 C   0  0  0  0  0  0  0  0  0  0  0  0
   27.4300   26.1300   31.0500 N   0  0  0  0  0  0  0  0  0  0  0  0
   24.2305   25.4864   35.2742 C   0  0  0  0  0  0  0  0  0  0  0  0
   23.1840   26.1402   35.8650 N   0  0  0  0  0  0  0  0  0  0  0  0
   22.1450   25.4390   36.3847 C   0  0  0  0  0  0  0  0  0  0  0  0
   20.9340   25.9983   37.0719 C   0  0  0  0  0  0  0  0  0  0  0  0
   20.1725   24.7915   37.4068 N   0  0  0  0  0  0  0  0  0  0  0  0
   20.9075   23.6430   36.9981 C   0  0  0  0  0  0  0  0  0  0  0  0
   20.5446   22.4547   37.2023 O   0  0  0  0  0  0  0  0  0  0  0  0
   22.1241   24.0650   36.3497 C   0  0  0  0  0  0  0  0  0  0  0  0
   23.1711   23.3447   35.7871 C   0  0  0  0  0  0  0  0  0  0  0  0
   23.1651   21.9888   35.7749 F   0  0  0  0  0  0  0  0  0  0  0  0
   24.2453   24.0665   35.2447 C   0  0  0  0  0  0  0  0  0  0  0  0
   19.0954   24.7643   38.2354 O   0  0  0  0  0  0  0  0  0  0  0  0
   17.9574   24.8039   37.4122 C   0  0  0  0  0  0  0  0  0  0  0  0
   25.5100   27.1862   35.2090 H   0  0  0  0  0  0  0  0  0  0  0  0
   32.0668   27.1425   34.4530 H   0  0  0  0  0  0  0  0  0  0  0  0
   33.3288   27.4608   32.3494 H   0  0  0  0  0  0  0  0  0  0  0  0
   32.1515   27.4335   30.1608 H   0  0  0  0  0  0  0  0  0  0  0  0
   29.8039   26.7906   30.0880 H   0  0  0  0  0  0  0  0  0  0  0  0
   26.8612   25.2624   30.9527 H   0  0  0  0  0  0  0  0  0  0  0  0
   27.5768   26.6942   30.1847 H   0  0  0  0  0  0  0  0  0  0  0  0
   20.3520   26.6485   36.3856 H   0  0  0  0  0  0  0  0  0  0  0  0
   21.2270   26.5397   37.9961 H   0  0  0  0  0  0  0  0  0  0  0  0
   25.0876   23.5267   34.8327 H   0  0  0  0  0  0  0  0  0  0  0  0
   17.9278   25.7467   36.8224 H   0  0  0  0  0  0  0  0  0  0  0  0
   17.9281   23.9237   36.7322 H   0  0  0  0  0  0  0  0  0  0  0  0
   17.0523   24.7721   38.0527 H   0  0  0  0  0  0  0  0  0  0  0  0
  1  2  1  0
  2  3  2  0
  2  4  1  0
  4  5  2  0
  5  6  1  0
  6  7  2  0
  7  8  1  0
  8  9  2  0
  9 10  1  0
 10 11  2  0
 11 12  1  0
 12 13  2  0
 13 14  1  0
  1 15  1  0
 15 16  2  0
 16 17  1  0
 17 18  1  0
 18 19  1  0
 19 20  1  0
 20 21  2  0
 20 22  1  0
 22 23  1  0
 23 24  1  0
 23 25  2  0
 19 26  1  0
 26 27  1  0
 13  4  1  0
 25 15  1  0
 12  7  1  0
 22 17  2  0
  1 28  1  0
  8 29  1  0
  9 30  1  0
 10 31  1  0
 11 32  1  0
 14 33  1  0
 14 34  1  0
 18 35  1  0
 18 36  1  0
 25 37  1  0
 27 38  1  0
 27 39  1  0
 27 40  1  0
M  END
$$$$
