confid_0
     RDKit          3D

 45 48  0  0  0  0  0  0  0  0999 V2000
   24.6900   26.1200   35.5300 N   0  0  0  0  0  0  0  0  0  0  0  0
   25.6600   25.6700   34.6600 C   0  0  0  0  0  0  0  0  0  0  0  0
   25.2400   25.0100   33.7200 O   0  0  0  0  0  0  0  0  0  0  0  0
   27.0300   26.2200   34.8800 C   0  0  0  0  0  0  0  0  0  0  0  0
   27.3500   26.7300   36.0700 N   0  0  0  0  0  0  0  0  0  0  0  0
   28.5700   27.1800   36.3300 N   0  0  0  0  0  0  0  0  0  0  0  0
   29.5300   27.1100   35.3900 C   0  0  0  0  0  0  0  0  0  0  0  0
   30.8300   27.5700   35.6500 C   0  0  0  0  0  0  0  0  0  0  0  0
   31.8500   27.5400   34.6900 C   0  0  0  0  0  0  0  0  0  0  0  0
   31.5100   27.1200   33.4000 C   0  0  0  0  0  0  0  0  0  0  0  0
   30.2200   26.6300   33.1100 C   0  0  0  0  0  0  0  0  0  0  0  0
   29.2400   26.6600   34.1000 C   0  0  0  0  0  0  0  0  0  0  0  0
   27.9300   26.2600   33.8100 C   0  0  0  0  0  0  0  0  0  0  0  0
   27.5200   25.7100   32.6100 N   0  0  0  0  0  0  0  0  0  0  0  0
   31.1907   28.0728   36.9960 C   0  0  0  0  0  0  0  0  0  0  0  0
   31.8405   29.2618   37.2646 C   0  0  0  0  0  0  0  0  0  0  0  0
   31.9787   29.3196   38.6371 C   0  0  0  0  0  0  0  0  0  0  0  0
   32.5479   30.4749   39.3943 C   0  0  0  0  0  0  0  0  0  0  0  0
   32.8879   30.1074   40.7736 N   0  0  0  0  0  0  0  0  0  0  0  0
   32.3119   28.9517   41.4175 C   0  0  0  0  0  0  0  0  0  0  0  0
   32.5109   28.7530   42.6470 O   0  0  0  0  0  0  0  0  0  0  0  0
   31.4721   27.9578   40.6624 C   0  0  0  0  0  0  0  0  0  0  0  0
   31.4518   28.2259   39.2234 N   0  0  0  0  0  0  0  0  0  0  0  0
   30.9621   27.4563   38.2166 C   0  0  0  0  0  0  0  0  0  0  0  0
   30.3304   26.2070   38.3351 O   0  0  0  0  0  0  0  0  0  0  0  0
   29.7443   25.6761   39.5162 C   0  0  0  0  0  0  0  0  0  0  0  0
   33.7211   31.0217   41.5582 C   0  0  0  0  0  0  0  0  0  0  0  0
   23.6981   25.8079   35.4226 H   0  0  0  0  0  0  0  0  0  0  0  0
   24.8909   26.7900   36.3054 H   0  0  0  0  0  0  0  0  0  0  0  0
   32.8556   27.8778   34.9104 H   0  0  0  0  0  0  0  0  0  0  0  0
   32.2659   27.1190   32.6253 H   0  0  0  0  0  0  0  0  0  0  0  0
   30.0115   26.2780   32.1080 H   0  0  0  0  0  0  0  0  0  0  0  0
   27.6978   26.2229   31.7183 H   0  0  0  0  0  0  0  0  0  0  0  0
   27.3415   24.6832   32.5417 H   0  0  0  0  0  0  0  0  0  0  0  0
   32.1565   30.0081   36.5471 H   0  0  0  0  0  0  0  0  0  0  0  0
   31.8022   31.2979   39.4090 H   0  0  0  0  0  0  0  0  0  0  0  0
   33.4599   30.8297   38.8666 H   0  0  0  0  0  0  0  0  0  0  0  0
   31.9112   26.9557   40.8417 H   0  0  0  0  0  0  0  0  0  0  0  0
   30.4381   27.9967   41.0629 H   0  0  0  0  0  0  0  0  0  0  0  0
   29.1307   24.7941   39.2408 H   0  0  0  0  0  0  0  0  0  0  0  0
   30.5263   25.3307   40.2198 H   0  0  0  0  0  0  0  0  0  0  0  0
   29.0748   26.4252   39.9872 H   0  0  0  0  0  0  0  0  0  0  0  0
   33.1476   31.4000   42.4309 H   0  0  0  0  0  0  0  0  0  0  0  0
   34.0448   31.8943   40.9509 H   0  0  0  0  0  0  0  0  0  0  0  0
   34.6266   30.4880   41.9163 H   0  0  0  0  0  0  0  0  0  0  0  0
  1  2  1  0
  2  3  2  0
  2  4  1  0
  4  5  2  0
  5  6  1  0
  6  7  2  0
  7  8  1  0
  8  9  2  0
  9 10  1  0
 10 11  2  0
 11 12  1  0
 12 13  2  0
 13 14  1  0
  8 15  1  0
 15 16  1  0
 16 17  2  0
 17 18  1  0
 18 19  1  0
 19 20  1  0
 20 21  2  0
 20 22  1  0
 22 23  1  0
 23 24  1  0
 24 25  1  0
 25 26  1  0
 19 27  1  0
 13  4  1  0
 24 15  2  0
 12  7  1  0
 23 17  1  0
  1 28  1  0
  1 29  1  0
  9 30  1  0
 10 31  1  0
 11 32  1  0
 14 33  1  0
 14 34  1  0
 16 35  1  0
 18 36  1  0
 18 37  1  0
 22 38  1  0
 22 39  1  0
 26 40  1  0
 26 41  1  0
 26 42  1  0
 27 43  1  0
 27 44  1  0
 27 45  1  0
M  END
$$$$
confid_1
     RDKit          3D

 45 48  0  0  0  0  0  0  0  0999 V2000
   24.6900   26.1200   35.5300 N   0  0  0  0  0  0  0  0  0  0  0  0
   25.6600   25.6700   34.6600 C   0  0  0  0  0  0  0  0  0  0  0  0
   25.2400   25.0100   33.7200 O   0  0  0  0  0  0  0  0  0  0  0  0
   27.0300   26.2200   34.8800 C   0  0  0  0  0  0  0  0  0  0  0  0
   27.3500   26.7300   36.0700 N   0  0  0  0  0  0  0  0  0  0  0  0
   28.5700   27.1800   36.3300 N   0  0  0  0  0  0  0  0  0  0  0  0
   29.5300   27.1100   35.3900 C   0  0  0  0  0  0  0  0  0  0  0  0
   30.8300   27.5700   35.6500 C   0  0  0  0  0  0  0  0  0  0  0  0
   31.8500   27.5400   34.6900 C   0  0  0  0  0  0  0  0  0  0  0  0
   31.5100   27.1200   33.4000 C   0  0  0  0  0  0  0  0  0  0  0  0
   30.2200   26.6300   33.1100 C   0  0  0  0  0  0  0  0  0  0  0  0
   29.2400   26.6600   34.1000 C   0  0  0  0  0  0  0  0  0  0  0  0
   27.9300   26.2600   33.8100 C   0  0  0  0  0  0  0  0  0  0  0  0
   27.5200   25.7100   32.6100 N   0  0  0  0  0  0  0  0  0  0  0  0
   31.1875   28.0674   37.0021 C   0  0  0  0  0  0  0  0  0  0  0  0
   30.8562   27.4798   38.2087 C   0  0  0  0  0  0  0  0  0  0  0  0
   31.4029   28.2833   39.1881 C   0  0  0  0  0  0  0  0  0  0  0  0
   31.1955   28.1024   40.6574 C   0  0  0  0  0  0  0  0  0  0  0  0
   32.1463   28.9001   41.4398 N   0  0  0  0  0  0  0  0  0  0  0  0
   32.7981   30.0592   40.8809 C   0  0  0  0  0  0  0  0  0  0  0  0
   33.4956   30.8068   41.6194 O   0  0  0  0  0  0  0  0  0  0  0  0
   32.6614   30.4164   39.4259 C   0  0  0  0  0  0  0  0  0  0  0  0
   32.0564   29.3323   38.6479 N   0  0  0  0  0  0  0  0  0  0  0  0
   31.9143   29.2099   37.3007 C   0  0  0  0  0  0  0  0  0  0  0  0
   32.3636   30.0988   36.3082 O   0  0  0  0  0  0  0  0  0  0  0  0
   33.1735   31.2496   36.5020 C   0  0  0  0  0  0  0  0  0  0  0  0
   32.3186   28.5973   42.8625 C   0  0  0  0  0  0  0  0  0  0  0  0
   24.8908   26.7904   36.3051 H   0  0  0  0  0  0  0  0  0  0  0  0
   23.6981   25.8078   35.4227 H   0  0  0  0  0  0  0  0  0  0  0  0
   32.8591   27.8661   34.9104 H   0  0  0  0  0  0  0  0  0  0  0  0
   32.2665   27.1165   32.6260 H   0  0  0  0  0  0  0  0  0  0  0  0
   30.0117   26.2775   32.1081 H   0  0  0  0  0  0  0  0  0  0  0  0
   27.3414   24.6832   32.5417 H   0  0  0  0  0  0  0  0  0  0  0  0
   27.6979   26.2228   31.7183 H   0  0  0  0  0  0  0  0  0  0  0  0
   30.2772   26.5781   38.3609 H   0  0  0  0  0  0  0  0  0  0  0  0
   30.1605   28.4109   40.9163 H   0  0  0  0  0  0  0  0  0  0  0  0
   31.3185   27.0249   40.9022 H   0  0  0  0  0  0  0  0  0  0  0  0
   32.0315   31.3267   39.3428 H   0  0  0  0  0  0  0  0  0  0  0  0
   33.6808   30.6252   39.0483 H   0  0  0  0  0  0  0  0  0  0  0  0
   34.1709   30.9564   36.8884 H   0  0  0  0  0  0  0  0  0  0  0  0
   33.3253   31.7445   35.5211 H   0  0  0  0  0  0  0  0  0  0  0  0
   32.6693   31.9751   37.1713 H   0  0  0  0  0  0  0  0  0  0  0  0
   31.7089   27.7188   43.1647 H   0  0  0  0  0  0  0  0  0  0  0  0
   32.0003   29.4676   43.4748 H   0  0  0  0  0  0  0  0  0  0  0  0
   33.3860   28.3722   43.0699 H   0  0  0  0  0  0  0  0  0  0  0  0
  1  2  1  0
  2  3  2  0
  2  4  1  0
  4  5  2  0
  5  6  1  0
  6  7  2  0
  7  8  1  0
  8  9  2  0
  9 10  1  0
 10 11  2  0
 11 12  1  0
 12 13  2  0
 13 14  1  0
  8 15  1  0
 15 16  1  0
 16 17  2  0
 17 18  1  0
 18 19  1  0
 19 20  1  0
 20 21  2  0
 20 22  1  0
 22 23  1  0
 23 24  1  0
 24 25  1  0
 25 26  1  0
 19 27  1  0
 13  4  1  0
 24 15  2  0
 12  7  1  0
 23 17  1  0
  1 28  1  0
  1 29  1  0
  9 30  1  0
 10 31  1  0
 11 32  1  0
 14 33  1  0
 14 34  1  0
 16 35  1  0
 18 36  1  0
 18 37  1  0
 22 38  1  0
 22 39  1  0
 26 40  1  0
 26 41  1  0
 26 42  1  0
 27 43  1  0
 27 44  1  0
 27 45  1  0
M  END
$$$$
confid_2
     RDKit          3D

 45 48  0  0  0  0  0  0  0  0999 V2000
   24.6900   26.1200   35.5300 N   0  0  0  0  0  0  0  0  0  0  0  0
   25.6600   25.6700   34.6600 C   0  0  0  0  0  0  0  0  0  0  0  0
   25.2400   25.0100   33.7200 O   0  0  0  0  0  0  0  0  0  0  0  0
   27.0300   26.2200   34.8800 C   0  0  0  0  0  0  0  0  0  0  0  0
   27.3500   26.7300   36.0700 N   0  0  0  0  0  0  0  0  0  0  0  0
   28.5700   27.1800   36.3300 N   0  0  0  0  0  0  0  0  0  0  0  0
   29.5300   27.1100   35.3900 C   0  0  0  0  0  0  0  0  0  0  0  0
   30.8300   27.5700   35.6500 C   0  0  0  0  0  0  0  0  0  0  0  0
   31.8500   27.5400   34.6900 C   0  0  0  0  0  0  0  0  0  0  0  0
   31.5100   27.1200   33.4000 C   0  0  0  0  0  0  0  0  0  0  0  0
   30.2200   26.6300   33.1100 C   0  0  0  0  0  0  0  0  0  0  0  0
   29.2400   26.6600   34.1000 C   0  0  0  0  0  0  0  0  0  0  0  0
   27.9300   26.2600   33.8100 C   0  0  0  0  0  0  0  0  0  0  0  0
   27.5200   25.7100   32.6100 N   0  0  0  0  0  0  0  0  0  0  0  0
   31.1796   28.0961   36.9905 C   0  0  0  0  0  0  0  0  0  0  0  0
   32.2917   27.7466   37.7311 C   0  0  0  0  0  0  0  0  0  0  0  0
   32.2469   28.5190   38.8738 C   0  0  0  0  0  0  0  0  0  0  0  0
   33.3181   28.5697   39.9155 C   0  0  0  0  0  0  0  0  0  0  0  0
   32.8458   29.2223   41.1418 N   0  0  0  0  0  0  0  0  0  0  0  0
   31.7314   30.1382   41.1260 C   0  0  0  0  0  0  0  0  0  0  0  0
   31.4365   30.7898   42.1648 O   0  0  0  0  0  0  0  0  0  0  0  0
   30.9074   30.3541   39.8859 C   0  0  0  0  0  0  0  0  0  0  0  0
   31.1715   29.3335   38.8685 N   0  0  0  0  0  0  0  0  0  0  0  0
   30.5247   29.0938   37.6962 C   0  0  0  0  0  0  0  0  0  0  0  0
   29.4021   29.7688   37.1855 O   0  0  0  0  0  0  0  0  0  0  0  0
   28.6050   30.7266   37.8673 C   0  0  0  0  0  0  0  0  0  0  0  0
   33.6183   29.0537   42.3749 C   0  0  0  0  0  0  0  0  0  0  0  0
   23.6982   25.8076   35.4229 H   0  0  0  0  0  0  0  0  0  0  0  0
   24.8908   26.7908   36.3048 H   0  0  0  0  0  0  0  0  0  0  0  0
   32.8520   27.8911   34.9058 H   0  0  0  0  0  0  0  0  0  0  0  0
   32.2650   27.1221   32.6245 H   0  0  0  0  0  0  0  0  0  0  0  0
   30.0113   26.2788   32.1078 H   0  0  0  0  0  0  0  0  0  0  0  0
   27.6977   26.2230   31.7183 H   0  0  0  0  0  0  0  0  0  0  0  0
   27.3415   24.6831   32.5416 H   0  0  0  0  0  0  0  0  0  0  0  0
   33.0589   27.0333   37.4585 H   0  0  0  0  0  0  0  0  0  0  0  0
   34.1865   29.1332   39.5134 H   0  0  0  0  0  0  0  0  0  0  0  0
   33.6407   27.5302   40.1426 H   0  0  0  0  0  0  0  0  0  0  0  0
   29.8444   30.3120   40.1926 H   0  0  0  0  0  0  0  0  0  0  0  0
   31.1444   31.3572   39.4734 H   0  0  0  0  0  0  0  0  0  0  0  0
   29.2103   31.6125   38.1458 H   0  0  0  0  0  0  0  0  0  0  0  0
   28.1215   30.2635   38.7516 H   0  0  0  0  0  0  0  0  0  0  0  0
   27.8010   31.0684   37.1840 H   0  0  0  0  0  0  0  0  0  0  0  0
   34.0084   30.0371   42.7132 H   0  0  0  0  0  0  0  0  0  0  0  0
   34.4823   28.3724   42.2198 H   0  0  0  0  0  0  0  0  0  0  0  0
   32.9691   28.6236   43.1664 H   0  0  0  0  0  0  0  0  0  0  0  0
  1  2  1  0
  2  3  2  0
  2  4  1  0
  4  5  2  0
  5  6  1  0
  6  7  2  0
  7  8  1  0
  8  9  2  0
  9 10  1  0
 10 11  2  0
 11 12  1  0
 12 13  2  0
 13 14  1  0
  8 15  1  0
 15 16  1  0
 16 17  2  0
 17 18  1  0
 18 19  1  0
 19 20  1  0
 20 21  2  0
 20 22  1  0
 22 23  1  0
 23 24  1  0
 24 25  1  0
 25 26  1  0
 19 27  1  0
 13  4  1  0
 24 15  2  0
 12  7  1  0
 23 17  1  0
  1 28  1  0
  1 29  1  0
  9 30  1  0
 10 31  1  0
 11 32  1  0
 14 33  1  0
 14 34  1  0
 16 35  1  0
 18 36  1  0
 18 37  1  0
 22 38  1  0
 22 39  1  0
 26 40  1  0
 26 41  1  0
 26 42  1  0
 27 43  1  0
 27 44  1  0
 27 45  1  0
M  END
$$$$
confid_3
     RDKit          3D

 45 48  0  0  0  0  0  0  0  0999 V2000
   24.6900   26.1200   35.5300 N   0  0  0  0  0  0  0  0  0  0  0  0
   25.6600   25.6700   34.6600 C   0  0  0  0  0  0  0  0  0  0  0  0
   25.2400   25.0100   33.7200 O   0  0  0  0  0  0  0  0  0  0  0  0
   27.0300   26.2200   34.8800 C   0  0  0  0  0  0  0  0  0  0  0  0
   27.3500   26.7300   36.0700 N   0  0  0  0  0  0  0  0  0  0  0  0
   28.5700   27.1800   36.3300 N   0  0  0  0  0  0  0  0  0  0  0  0
   29.5300   27.1100   35.3900 C   0  0  0  0  0  0  0  0  0  0  0  0
   30.8300   27.5700   35.6500 C   0  0  0  0  0  0  0  0  0  0  0  0
   31.8500   27.5400   34.6900 C   0  0  0  0  0  0  0  0  0  0  0  0
   31.5100   27.1200   33.4000 C   0  0  0  0  0  0  0  0  0  0  0  0
   30.2200   26.6300   33.1100 C   0  0  0  0  0  0  0  0  0  0  0  0
   29.2400   26.6600   34.1000 C   0  0  0  0  0  0  0  0  0  0  0  0
   27.9300   26.2600   33.8100 C   0  0  0  0  0  0  0  0  0  0  0  0
   27.5200   25.7100   32.6100 N   0  0  0  0  0  0  0  0  0  0  0  0
   31.1706   28.0691   36.9927 C   0  0  0  0  0  0  0  0  0  0  0  0
   31.7729   27.3107   37.9829 C   0  0  0  0  0  0  0  0  0  0  0  0
   31.9090   28.1480   39.0730 C   0  0  0  0  0  0  0  0  0  0  0  0
   32.5759   27.8146   40.3688 C   0  0  0  0  0  0  0  0  0  0  0  0
   32.2111   28.7773   41.4204 N   0  0  0  0  0  0  0  0  0  0  0  0
   31.7145   30.0976   41.1029 C   0  0  0  0  0  0  0  0  0  0  0  0
   31.4738   30.9222   42.0264 O   0  0  0  0  0  0  0  0  0  0  0  0
   31.5049   30.5287   39.6773 C   0  0  0  0  0  0  0  0  0  0  0  0
   31.4275   29.3705   38.7931 N   0  0  0  0  0  0  0  0  0  0  0  0
   30.9841   29.3465   37.5215 C   0  0  0  0  0  0  0  0  0  0  0  0
   30.4539   30.4827   36.8906 O   0  0  0  0  0  0  0  0  0  0  0  0
   30.0285   30.5383   35.5351 C   0  0  0  0  0  0  0  0  0  0  0  0
   32.4827   28.4316   42.8175 C   0  0  0  0  0  0  0  0  0  0  0  0
   23.6982   25.8074   35.4230 H   0  0  0  0  0  0  0  0  0  0  0  0
   24.8908   26.7907   36.3049 H   0  0  0  0  0  0  0  0  0  0  0  0
   32.8521   27.8862   34.9126 H   0  0  0  0  0  0  0  0  0  0  0  0
   32.2639   27.1264   32.6235 H   0  0  0  0  0  0  0  0  0  0  0  0
   30.0100   26.3035   32.1004 H   0  0  0  0  0  0  0  0  0  0  0  0
   26.6943   26.1032   32.1052 H   0  0  0  0  0  0  0  0  0  0  0  0
   28.1317   25.0436   32.0892 H   0  0  0  0  0  0  0  0  0  0  0  0
   32.0847   26.2764   37.9128 H   0  0  0  0  0  0  0  0  0  0  0  0
   33.6769   27.8302   40.2238 H   0  0  0  0  0  0  0  0  0  0  0  0
   32.2681   26.7906   40.6732 H   0  0  0  0  0  0  0  0  0  0  0  0
   32.3540   31.1725   39.3645 H   0  0  0  0  0  0  0  0  0  0  0  0
   30.5631   31.1149   39.6051 H   0  0  0  0  0  0  0  0  0  0  0  0
   30.8660   30.2717   34.8574 H   0  0  0  0  0  0  0  0  0  0  0  0
   29.7064   31.5739   35.3021 H   0  0  0  0  0  0  0  0  0  0  0  0
   29.1632   29.8637   35.3759 H   0  0  0  0  0  0  0  0  0  0  0  0
   33.2005   29.1589   43.2529 H   0  0  0  0  0  0  0  0  0  0  0  0
   32.9245   27.4154   42.9027 H   0  0  0  0  0  0  0  0  0  0  0  0
   31.5368   28.4541   43.3991 H   0  0  0  0  0  0  0  0  0  0  0  0
  1  2  1  0
  2  3  2  0
  2  4  1  0
  4  5  2  0
  5  6  1  0
  6  7  2  0
  7  8  1  0
  8  9  2  0
  9 10  1  0
 10 11  2  0
 11 12  1  0
 12 13  2  0
 13 14  1  0
  8 15  1  0
 15 16  1  0
 16 17  2  0
 17 18  1  0
 18 19  1  0
 19 20  1  0
 20 21  2  0
 20 22  1  0
 22 23  1  0
 23 24  1  0
 24 25  1  0
 25 26  1  0
 19 27  1  0
 13  4  1  0
 24 15  2  0
 12  7  1  0
 23 17  1  0
  1 28  1  0
  1 29  1  0
  9 30  1  0
 10 31  1  0
 11 32  1  0
 14 33  1  0
 14 34  1  0
 16 35  1  0
 18 36  1  0
 18 37  1  0
 22 38  1  0
 22 39  1  0
 26 40  1  0
 26 41  1  0
 26 42  1  0
 27 43  1  0
 27 44  1  0
 27 45  1  0
M  END
$$$$
confid_4
     RDKit          3D

 45 48  0  0  0  0  0  0  0  0999 V2000
   24.6900   26.1200   35.5300 N   0  0  0  0  0  0  0  0  0  0  0  0
   25.6600   25.6700   34.6600 C   0  0  0  0  0  0  0  0  0  0  0  0
   25.2400   25.0100   33.7200 O   0  0  0  0  0  0  0  0  0  0  0  0
   27.0300   26.2200   34.8800 C   0  0  0  0  0  0  0  0  0  0  0  0
   27.3500   26.7300   36.0700 N   0  0  0  0  0  0  0  0  0  0  0  0
   28.5700   27.1800   36.3300 N   0  0  0  0  0  0  0  0  0  0  0  0
   29.5300   27.1100   35.3900 C   0  0  0  0  0  0  0  0  0  0  0  0
   30.8300   27.5700   35.6500 C   0  0  0  0  0  0  0  0  0  0  0  0
   31.8500   27.5400   34.6900 C   0  0  0  0  0  0  0  0  0  0  0  0
   31.5100   27.1200   33.4000 C   0  0  0  0  0  0  0  0  0  0  0  0
   30.2200   26.6300   33.1100 C   0  0  0  0  0  0  0  0  0  0  0  0
   29.2400   26.6600   34.1000 C   0  0  0  0  0  0  0  0  0  0  0  0
   27.9300   26.2600   33.8100 C   0  0  0  0  0  0  0  0  0  0  0  0
   27.5200   25.7100   32.6100 N   0  0  0  0  0  0  0  0  0  0  0  0
   31.1649   28.0921   36.9853 C   0  0  0  0  0  0  0  0  0  0  0  0
   31.0769   29.4253   37.3493 C   0  0  0  0  0  0  0  0  0  0  0  0
   31.4365   29.4806   38.6817 C   0  0  0  0  0  0  0  0  0  0  0  0
   31.4178   30.6935   39.5554 C   0  0  0  0  0  0  0  0  0  0  0  0
   32.2106   30.4829   40.7769 N   0  0  0  0  0  0  0  0  0  0  0  0
   32.5019   29.1568   41.2739 C   0  0  0  0  0  0  0  0  0  0  0  0
   33.1186   29.0110   42.3642 O   0  0  0  0  0  0  0  0  0  0  0  0
   32.0540   27.9296   40.5284 C   0  0  0  0  0  0  0  0  0  0  0  0
   31.7327   28.2540   39.1423 N   0  0  0  0  0  0  0  0  0  0  0  0
   31.5642   27.3900   38.1229 C   0  0  0  0  0  0  0  0  0  0  0  0
   31.7728   26.0098   38.2679 O   0  0  0  0  0  0  0  0  0  0  0  0
   31.6356   25.0505   37.2276 C   0  0  0  0  0  0  0  0  0  0  0  0
   32.6010   31.6476   41.5744 C   0  0  0  0  0  0  0  0  0  0  0  0
   23.6981   25.8078   35.4227 H   0  0  0  0  0  0  0  0  0  0  0  0
   24.8908   26.7903   36.3051 H   0  0  0  0  0  0  0  0  0  0  0  0
   32.8522   27.8860   34.9127 H   0  0  0  0  0  0  0  0  0  0  0  0
   32.2655   27.1205   32.6250 H   0  0  0  0  0  0  0  0  0  0  0  0
   30.0115   26.2783   32.1079 H   0  0  0  0  0  0  0  0  0  0  0  0
   27.3416   24.6831   32.5417 H   0  0  0  0  0  0  0  0  0  0  0  0
   27.6979   26.2229   31.7183 H   0  0  0  0  0  0  0  0  0  0  0  0
   30.7639   30.2518   36.7246 H   0  0  0  0  0  0  0  0  0  0  0  0
   30.3677   30.9220   39.8350 H   0  0  0  0  0  0  0  0  0  0  0  0
   31.8310   31.5510   38.9811 H   0  0  0  0  0  0  0  0  0  0  0  0
   32.8635   27.1683   40.5538 H   0  0  0  0  0  0  0  0  0  0  0  0
   31.1527   27.5123   41.0252 H   0  0  0  0  0  0  0  0  0  0  0  0
   30.5843   25.0120   36.8771 H   0  0  0  0  0  0  0  0  0  0  0  0
   31.9053   24.0503   37.6237 H   0  0  0  0  0  0  0  0  0  0  0  0
   32.3222   25.2903   36.3897 H   0  0  0  0  0  0  0  0  0  0  0  0
   33.7070   31.6836   41.6667 H   0  0  0  0  0  0  0  0  0  0  0  0
   32.1493   31.5797   42.5868 H   0  0  0  0  0  0  0  0  0  0  0  0
   32.2561   32.5929   41.1029 H   0  0  0  0  0  0  0  0  0  0  0  0
  1  2  1  0
  2  3  2  0
  2  4  1  0
  4  5  2  0
  5  6  1  0
  6  7  2  0
  7  8  1  0
  8  9  2  0
  9 10  1  0
 10 11  2  0
 11 12  1  0
 12 13  2  0
 13 14  1  0
  8 15  1  0
 15 16  1  0
 16 17  2  0
 17 18  1  0
 18 19  1  0
 19 20  1  0
 20 21  2  0
 20 22  1  0
 22 23  1  0
 23 24  1  0
 24 25  1  0
 25 26  1  0
 19 27  1  0
 13  4  1  0
 24 15  2  0
 12  7  1  0
 23 17  1  0
  1 28  1  0
  1 29  1  0
  9 30  1  0
 10 31  1  0
 11 32  1  0
 14 33  1  0
 14 34  1  0
 16 35  1  0
 18 36  1  0
 18 37  1  0
 22 38  1  0
 22 39  1  0
 26 40  1  0
 26 41  1  0
 26 42  1  0
 27 43  1  0
 27 44  1  0
 27 45  1  0
M  END
$$$$
confid_5
     RDKit          3D

 45 48  0  0  0  0  0  0  0  0999 V2000
   24.6900   26.1200   35.5300 N   0  0  0  0  0  0  0  0  0  0  0  0
   25.6600   25.6700   34.6600 C   0  0  0  0  0  0  0  0  0  0  0  0
   25.2400   25.0100   33.7200 O   0  0  0  0  0  0  0  0  0  0  0  0
   27.0300   26.2200   34.8800 C   0  0  0  0  0  0  0  0  0  0  0  0
   27.3500   26.7300   36.0700 N   0  0  0  0  0  0  0  0  0  0  0  0
   28.5700   27.1800   36.3300 N   0  0  0  0  0  0  0  0  0  0  0  0
   29.5300   27.1100   35.3900 C   0  0  0  0  0  0  0  0  0  0  0  0
   30.8300   27.5700   35.6500 C   0  0  0  0  0  0  0  0  0  0  0  0
   31.8500   27.5400   34.6900 C   0  0  0  0  0  0  0  0  0  0  0  0
   31.5100   27.1200   33.4000 C   0  0  0  0  0  0  0  0  0  0  0  0
   30.2200   26.6300   33.1100 C   0  0  0  0  0  0  0  0  0  0  0  0
   29.2400   26.6600   34.1000 C   0  0  0  0  0  0  0  0  0  0  0  0
   27.9300   26.2600   33.8100 C   0  0  0  0  0  0  0  0  0  0  0  0
   27.5200   25.7100   32.6100 N   0  0  0  0  0  0  0  0  0  0  0  0
   31.1772   28.1024   36.9912 C   0  0  0  0  0  0  0  0  0  0  0  0
   30.4441   29.0131   37.7286 C   0  0  0  0  0  0  0  0  0  0  0  0
   31.1509   29.2167   38.8960 C   0  0  0  0  0  0  0  0  0  0  0  0
   30.6749   30.0361   40.0522 C   0  0  0  0  0  0  0  0  0  0  0  0
   31.7618   30.3234   40.9949 N   0  0  0  0  0  0  0  0  0  0  0  0
   32.9446   29.5001   41.0567 C   0  0  0  0  0  0  0  0  0  0  0  0
   33.7925   29.6836   41.9723 O   0  0  0  0  0  0  0  0  0  0  0  0
   33.1975   28.4060   40.0556 C   0  0  0  0  0  0  0  0  0  0  0  0
   32.2821   28.4824   38.9143 N   0  0  0  0  0  0  0  0  0  0  0  0
   32.2951   27.7839   37.7472 C   0  0  0  0  0  0  0  0  0  0  0  0
   33.2393   26.8283   37.3318 O   0  0  0  0  0  0  0  0  0  0  0  0
   34.4489   26.4859   37.9932 C   0  0  0  0  0  0  0  0  0  0  0  0
   31.5698   31.3781   41.9931 C   0  0  0  0  0  0  0  0  0  0  0  0
   23.6981   25.8078   35.4227 H   0  0  0  0  0  0  0  0  0  0  0  0
   24.8908   26.7905   36.3050 H   0  0  0  0  0  0  0  0  0  0  0  0
   32.8495   27.9006   34.9005 H   0  0  0  0  0  0  0  0  0  0  0  0
   32.2629   27.1295   32.6225 H   0  0  0  0  0  0  0  0  0  0  0  0
   30.0098   26.3041   32.1002 H   0  0  0  0  0  0  0  0  0  0  0  0
   28.1317   25.0436   32.0892 H   0  0  0  0  0  0  0  0  0  0  0  0
   26.6941   26.1028   32.1054 H   0  0  0  0  0  0  0  0  0  0  0  0
   29.5017   29.4698   37.4554 H   0  0  0  0  0  0  0  0  0  0  0  0
   30.2546   30.9885   39.6620 H   0  0  0  0  0  0  0  0  0  0  0  0
   29.8707   29.4815   40.5806 H   0  0  0  0  0  0  0  0  0  0  0  0
   34.2417   28.5232   39.7073 H   0  0  0  0  0  0  0  0  0  0  0  0
   33.0740   27.4265   40.5633 H   0  0  0  0  0  0  0  0  0  0  0  0
   34.9498   25.6797   37.4194 H   0  0  0  0  0  0  0  0  0  0  0  0
   34.2425   26.0974   39.0106 H   0  0  0  0  0  0  0  0  0  0  0  0
   35.1339   27.3578   38.0159 H   0  0  0  0  0  0  0  0  0  0  0  0
   31.6008   30.9417   43.0140 H   0  0  0  0  0  0  0  0  0  0  0  0
   30.5893   31.8842   41.8617 H   0  0  0  0  0  0  0  0  0  0  0  0
   32.3735   32.1378   41.8932 H   0  0  0  0  0  0  0  0  0  0  0  0
  1  2  1  0
  2  3  2  0
  2  4  1  0
  4  5  2  0
  5  6  1  0
  6  7  2  0
  7  8  1  0
  8  9  2  0
  9 10  1  0
 10 11  2  0
 11 12  1  0
 12 13  2  0
 13 14  1  0
  8 15  1  0
 15 16  1  0
 16 17  2  0
 17 18  1  0
 18 19  1  0
 19 20  1  0
 20 21  2  0
 20 22  1  0
 22 23  1  0
 23 24  1  0
 24 25  1  0
 25 26  1  0
 19 27  1  0
 13  4  1  0
 24 15  2  0
 12  7  1  0
 23 17  1  0
  1 28  1  0
  1 29  1  0
  9 30  1  0
 10 31  1  0
 11 32  1  0
 14 33  1  0
 14 34  1  0
 16 35  1  0
 18 36  1  0
 18 37  1  0
 22 38  1  0
 22 39  1  0
 26 40  1  0
 26 41  1  0
 26 42  1  0
 27 43  1  0
 27 44  1  0
 27 45  1  0
M  END
$$$$
confid_6
     RDKit          3D

 45 48  0  0  0  0  0  0  0  0999 V2000
   24.6900   26.1200   35.5300 N   0  0  0  0  0  0  0  0  0  0  0  0
   25.6600   25.6700   34.6600 C   0  0  0  0  0  0  0  0  0  0  0  0
   25.2400   25.0100   33.7200 O   0  0  0  0  0  0  0  0  0  0  0  0
   27.0300   26.2200   34.8800 C   0  0  0  0  0  0  0  0  0  0  0  0
   27.3500   26.7300   36.0700 N   0  0  0  0  0  0  0  0  0  0  0  0
   28.5700   27.1800   36.3300 N   0  0  0  0  0  0  0  0  0  0  0  0
   29.5300   27.1100   35.3900 C   0  0  0  0  0  0  0  0  0  0  0  0
   30.8300   27.5700   35.6500 C   0  0  0  0  0  0  0  0  0  0  0  0
   31.8500   27.5400   34.6900 C   0  0  0  0  0  0  0  0  0  0  0  0
   31.5100   27.1200   33.4000 C   0  0  0  0  0  0  0  0  0  0  0  0
   30.2200   26.6300   33.1100 C   0  0  0  0  0  0  0  0  0  0  0  0
   29.2400   26.6600   34.1000 C   0  0  0  0  0  0  0  0  0  0  0  0
   27.9300   26.2600   33.8100 C   0  0  0  0  0  0  0  0  0  0  0  0
   27.5200   25.7100   32.6100 N   0  0  0  0  0  0  0  0  0  0  0  0
   31.1610   28.0968   36.9845 C   0  0  0  0  0  0  0  0  0  0  0  0
   31.1028   29.4359   37.3341 C   0  0  0  0  0  0  0  0  0  0  0  0
   31.4646   29.4973   38.6654 C   0  0  0  0  0  0  0  0  0  0  0  0
   31.6201   30.7357   39.4878 C   0  0  0  0  0  0  0  0  0  0  0  0
   31.5956   30.4231   40.9255 N   0  0  0  0  0  0  0  0  0  0  0  0
   31.9344   29.1067   41.4193 C   0  0  0  0  0  0  0  0  0  0  0  0
   32.0073   28.8946   42.6608 O   0  0  0  0  0  0  0  0  0  0  0  0
   32.2451   27.9772   40.4751 C   0  0  0  0  0  0  0  0  0  0  0  0
   31.7414   28.2701   39.1369 N   0  0  0  0  0  0  0  0  0  0  0  0
   31.5691   27.4005   38.1228 C   0  0  0  0  0  0  0  0  0  0  0  0
   31.7948   26.0235   38.2696 O   0  0  0  0  0  0  0  0  0  0  0  0
   31.6798   25.0631   37.2270 C   0  0  0  0  0  0  0  0  0  0  0  0
   31.3606   31.5073   41.8814 C   0  0  0  0  0  0  0  0  0  0  0  0
   23.6980   25.8087   35.4218 H   0  0  0  0  0  0  0  0  0  0  0  0
   24.8911   26.7896   36.3057 H   0  0  0  0  0  0  0  0  0  0  0  0
   32.8516   27.8881   34.9124 H   0  0  0  0  0  0  0  0  0  0  0  0
   32.2638   27.1261   32.6235 H   0  0  0  0  0  0  0  0  0  0  0  0
   30.0100   26.3031   32.1005 H   0  0  0  0  0  0  0  0  0  0  0  0
   26.6940   26.1025   32.1054 H   0  0  0  0  0  0  0  0  0  0  0  0
   28.1311   25.0425   32.0899 H   0  0  0  0  0  0  0  0  0  0  0  0
   30.8402   30.2658   36.6921 H   0  0  0  0  0  0  0  0  0  0  0  0
   32.5883   31.2167   39.2348 H   0  0  0  0  0  0  0  0  0  0  0  0
   30.7922   31.4358   39.2387 H   0  0  0  0  0  0  0  0  0  0  0  0
   31.7785   27.0410   40.8536 H   0  0  0  0  0  0  0  0  0  0  0  0
   33.3468   27.8376   40.4281 H   0  0  0  0  0  0  0  0  0  0  0  0
   32.3718   25.3122   36.3958 H   0  0  0  0  0  0  0  0  0  0  0  0
   31.9573   24.0657   37.6251 H   0  0  0  0  0  0  0  0  0  0  0  0
   30.6329   25.0128   36.8637 H   0  0  0  0  0  0  0  0  0  0  0  0
   31.1923   32.4745   41.3599 H   0  0  0  0  0  0  0  0  0  0  0  0
   32.2417   31.6212   42.5472 H   0  0  0  0  0  0  0  0  0  0  0  0
   30.4647   31.2766   42.4954 H   0  0  0  0  0  0  0  0  0  0  0  0
  1  2  1  0
  2  3  2  0
  2  4  1  0
  4  5  2  0
  5  6  1  0
  6  7  2  0
  7  8  1  0
  8  9  2  0
  9 10  1  0
 10 11  2  0
 11 12  1  0
 12 13  2  0
 13 14  1  0
  8 15  1  0
 15 16  1  0
 16 17  2  0
 17 18  1  0
 18 19  1  0
 19 20  1  0
 20 21  2  0
 20 22  1  0
 22 23  1  0
 23 24  1  0
 24 25  1  0
 25 26  1  0
 19 27  1  0
 13  4  1  0
 24 15  2  0
 12  7  1  0
 23 17  1  0
  1 28  1  0
  1 29  1  0
  9 30  1  0
 10 31  1  0
 11 32  1  0
 14 33  1  0
 14 34  1  0
 16 35  1  0
 18 36  1  0
 18 37  1  0
 22 38  1  0
 22 39  1  0
 26 40  1  0
 26 41  1  0
 26 42  1  0
 27 43  1  0
 27 44  1  0
 27 45  1  0
M  END
$$$$
confid_7
     RDKit          3D

 45 48  0  0  0  0  0  0  0  0999 V2000
   24.6900   26.1200   35.5300 N   0  0  0  0  0  0  0  0  0  0  0  0
   25.6600   25.6700   34.6600 C   0  0  0  0  0  0  0  0  0  0  0  0
   25.2400   25.0100   33.7200 O   0  0  0  0  0  0  0  0  0  0  0  0
   27.0300   26.2200   34.8800 C   0  0  0  0  0  0  0  0  0  0  0  0
   27.3500   26.7300   36.0700 N   0  0  0  0  0  0  0  0  0  0  0  0
   28.5700   27.1800   36.3300 N   0  0  0  0  0  0  0  0  0  0  0  0
   29.5300   27.1100   35.3900 C   0  0  0  0  0  0  0  0  0  0  0  0
   30.8300   27.5700   35.6500 C   0  0  0  0  0  0  0  0  0  0  0  0
   31.8500   27.5400   34.6900 C   0  0  0  0  0  0  0  0  0  0  0  0
   31.5100   27.1200   33.4000 C   0  0  0  0  0  0  0  0  0  0  0  0
   30.2200   26.6300   33.1100 C   0  0  0  0  0  0  0  0  0  0  0  0
   29.2400   26.6600   34.1000 C   0  0  0  0  0  0  0  0  0  0  0  0
   27.9300   26.2600   33.8100 C   0  0  0  0  0  0  0  0  0  0  0  0
   27.5200   25.7100   32.6100 N   0  0  0  0  0  0  0  0  0  0  0  0
   31.1702   28.0693   36.9926 C   0  0  0  0  0  0  0  0  0  0  0  0
   31.5894   27.2715   38.0443 C   0  0  0  0  0  0  0  0  0  0  0  0
   31.7664   28.1214   39.1187 C   0  0  0  0  0  0  0  0  0  0  0  0
   32.1282   27.7242   40.5138 C   0  0  0  0  0  0  0  0  0  0  0  0
   32.6052   28.8802   41.2893 N   0  0  0  0  0  0  0  0  0  0  0  0
   32.2590   30.2347   40.9208 C   0  0  0  0  0  0  0  0  0  0  0  0
   32.6174   31.2000   41.6490 O   0  0  0  0  0  0  0  0  0  0  0  0
   31.4439   30.5223   39.6897 C   0  0  0  0  0  0  0  0  0  0  0  0
   31.4726   29.3862   38.7742 N   0  0  0  0  0  0  0  0  0  0  0  0
   31.0935   29.3731   37.4819 C   0  0  0  0  0  0  0  0  0  0  0  0
   30.6801   30.5335   36.8096 O   0  0  0  0  0  0  0  0  0  0  0  0
   30.2458   30.5797   35.4564 C   0  0  0  0  0  0  0  0  0  0  0  0
   33.3329   28.6416   42.5377 C   0  0  0  0  0  0  0  0  0  0  0  0
   23.6978   25.8091   35.4216 H   0  0  0  0  0  0  0  0  0  0  0  0
   24.8913   26.7881   36.3070 H   0  0  0  0  0  0  0  0  0  0  0  0
   32.8521   27.8862   34.9127 H   0  0  0  0  0  0  0  0  0  0  0  0
   32.2639   27.1264   32.6235 H   0  0  0  0  0  0  0  0  0  0  0  0
   30.0100   26.3035   32.1003 H   0  0  0  0  0  0  0  0  0  0  0  0
   26.6941   26.1029   32.1054 H   0  0  0  0  0  0  0  0  0  0  0  0
   28.1316   25.0436   32.0892 H   0  0  0  0  0  0  0  0  0  0  0  0
   31.7258   26.1979   38.0337 H   0  0  0  0  0  0  0  0  0  0  0  0
   32.9213   26.9462   40.4680 H   0  0  0  0  0  0  0  0  0  0  0  0
   31.2330   27.2940   41.0110 H   0  0  0  0  0  0  0  0  0  0  0  0
   31.8517   31.4217   39.1794 H   0  0  0  0  0  0  0  0  0  0  0  0
   30.3939   30.7241   39.9895 H   0  0  0  0  0  0  0  0  0  0  0  0
   29.9822   31.6259   35.1995 H   0  0  0  0  0  0  0  0  0  0  0  0
   29.3425   29.9499   35.3211 H   0  0  0  0  0  0  0  0  0  0  0  0
   31.0608   30.2504   34.7798 H   0  0  0  0  0  0  0  0  0  0  0  0
   34.3337   29.1195   42.4842 H   0  0  0  0  0  0  0  0  0  0  0  0
   33.4712   27.5545   42.7224 H   0  0  0  0  0  0  0  0  0  0  0  0
   32.7660   29.0693   43.3916 H   0  0  0  0  0  0  0  0  0  0  0  0
  1  2  1  0
  2  3  2  0
  2  4  1  0
  4  5  2  0
  5  6  1  0
  6  7  2  0
  7  8  1  0
  8  9  2  0
  9 10  1  0
 10 11  2  0
 11 12  1  0
 12 13  2  0
 13 14  1  0
  8 15  1  0
 15 16  1  0
 16 17  2  0
 17 18  1  0
 18 19  1  0
 19 20  1  0
 20 21  2  0
 20 22  1  0
 22 23  1  0
 23 24  1  0
 24 25  1  0
 25 26  1  0
 19 27  1  0
 13  4  1  0
 24 15  2  0
 12  7  1  0
 23 17  1  0
  1 28  1  0
  1 29  1  0
  9 30  1  0
 10 31  1  0
 11 32  1  0
 14 33  1  0
 14 34  1  0
 16 35  1  0
 18 36  1  0
 18 37  1  0
 22 38  1  0
 22 39  1  0
 26 40  1  0
 26 41  1  0
 26 42  1  0
 27 43  1  0
 27 44  1  0
 27 45  1  0
M  END
$$$$
confid_8
     RDKit          3D

 45 48  0  0  0  0  0  0  0  0999 V2000
   24.6900   26.1200   35.5300 N   0  0  0  0  0  0  0  0  0  0  0  0
   25.6600   25.6700   34.6600 C   0  0  0  0  0  0  0  0  0  0  0  0
   25.2400   25.0100   33.7200 O   0  0  0  0  0  0  0  0  0  0  0  0
   27.0300   26.2200   34.8800 C   0  0  0  0  0  0  0  0  0  0  0  0
   27.3500   26.7300   36.0700 N   0  0  0  0  0  0  0  0  0  0  0  0
   28.5700   27.1800   36.3300 N   0  0  0  0  0  0  0  0  0  0  0  0
   29.5300   27.1100   35.3900 C   0  0  0  0  0  0  0  0  0  0  0  0
   30.8300   27.5700   35.6500 C   0  0  0  0  0  0  0  0  0  0  0  0
   31.8500   27.5400   34.6900 C   0  0  0  0  0  0  0  0  0  0  0  0
   31.5100   27.1200   33.4000 C   0  0  0  0  0  0  0  0  0  0  0  0
   30.2200   26.6300   33.1100 C   0  0  0  0  0  0  0  0  0  0  0  0
   29.2400   26.6600   34.1000 C   0  0  0  0  0  0  0  0  0  0  0  0
   27.9300   26.2600   33.8100 C   0  0  0  0  0  0  0  0  0  0  0  0
   27.5200   25.7100   32.6100 N   0  0  0  0  0  0  0  0  0  0  0  0
   31.1873   28.0720   36.9980 C   0  0  0  0  0  0  0  0  0  0  0  0
   31.8990   29.2245   37.2680 C   0  0  0  0  0  0  0  0  0  0  0  0
   32.0496   29.2676   38.6390 C   0  0  0  0  0  0  0  0  0  0  0  0
   32.8652   30.2784   39.3793 C   0  0  0  0  0  0  0  0  0  0  0  0
   32.5741   30.2564   40.8172 N   0  0  0  0  0  0  0  0  0  0  0  0
   32.0157   29.0889   41.4544 C   0  0  0  0  0  0  0  0  0  0  0  0
   31.9066   29.0479   42.7103 O   0  0  0  0  0  0  0  0  0  0  0  0
   31.5665   27.8952   40.6563 C   0  0  0  0  0  0  0  0  0  0  0  0
   31.4776   28.1956   39.2251 N   0  0  0  0  0  0  0  0  0  0  0  0
   30.9668   27.4428   38.2139 C   0  0  0  0  0  0  0  0  0  0  0  0
   30.3614   26.1776   38.3119 O   0  0  0  0  0  0  0  0  0  0  0  0
   30.0006   25.4995   39.5067 C   0  0  0  0  0  0  0  0  0  0  0  0
   33.0002   31.3891   41.6423 C   0  0  0  0  0  0  0  0  0  0  0  0
   23.6981   25.8079   35.4226 H   0  0  0  0  0  0  0  0  0  0  0  0
   24.8909   26.7901   36.3053 H   0  0  0  0  0  0  0  0  0  0  0  0
   32.8562   27.8761   34.9100 H   0  0  0  0  0  0  0  0  0  0  0  0
   32.2660   27.1186   32.6254 H   0  0  0  0  0  0  0  0  0  0  0  0
   30.0115   26.2779   32.1080 H   0  0  0  0  0  0  0  0  0  0  0  0
   27.6979   26.2229   31.7183 H   0  0  0  0  0  0  0  0  0  0  0  0
   27.3415   24.6832   32.5417 H   0  0  0  0  0  0  0  0  0  0  0  0
   32.2857   29.9354   36.5491 H   0  0  0  0  0  0  0  0  0  0  0  0
   33.9425   30.0588   39.2217 H   0  0  0  0  0  0  0  0  0  0  0  0
   32.6416   31.2858   38.9654 H   0  0  0  0  0  0  0  0  0  0  0  0
   30.5700   27.6051   41.0415 H   0  0  0  0  0  0  0  0  0  0  0  0
   32.2910   27.0693   40.8162 H   0  0  0  0  0  0  0  0  0  0  0  0
   29.5472   24.5240   39.2365 H   0  0  0  0  0  0  0  0  0  0  0  0
   29.2387   26.0825   40.0633 H   0  0  0  0  0  0  0  0  0  0  0  0
   30.8964   25.2951   40.1265 H   0  0  0  0  0  0  0  0  0  0  0  0
   33.4700   32.1842   41.0243 H   0  0  0  0  0  0  0  0  0  0  0  0
   33.7437   31.0496   42.3943 H   0  0  0  0  0  0  0  0  0  0  0  0
   32.1212   31.8228   42.1640 H   0  0  0  0  0  0  0  0  0  0  0  0
  1  2  1  0
  2  3  2  0
  2  4  1  0
  4  5  2  0
  5  6  1  0
  6  7  2  0
  7  8  1  0
  8  9  2  0
  9 10  1  0
 10 11  2  0
 11 12  1  0
 12 13  2  0
 13 14  1  0
  8 15  1  0
 15 16  1  0
 16 17  2  0
 17 18  1  0
 18 19  1  0
 19 20  1  0
 20 21  2  0
 20 22  1  0
 22 23  1  0
 23 24  1  0
 24 25  1  0
 25 26  1  0
 19 27  1  0
 13  4  1  0
 24 15  2  0
 12  7  1  0
 23 17  1  0
  1 28  1  0
  1 29  1  0
  9 30  1  0
 10 31  1  0
 11 32  1  0
 14 33  1  0
 14 34  1  0
 16 35  1  0
 18 36  1  0
 18 37  1  0
 22 38  1  0
 22 39  1  0
 26 40  1  0
 26 41  1  0
 26 42  1  0
 27 43  1  0
 27 44  1  0
 27 45  1  0
M  END
$$$$
