confid_0
     RDKit          3D

 43 46  0  0  0  0  0  0  0  0999 V2000
   24.4800   26.1000   36.1300 N   0  0  0  0  0  0  0  0  0  0  0  0
   25.2500   26.2500   34.9900 C   0  0  0  0  0  0  0  0  0  0  0  0
   24.7400   25.7600   33.9900 O   0  0  0  0  0  0  0  0  0  0  0  0
   26.5900   26.8900   34.9600 C   0  0  0  0  0  0  0  0  0  0  0  0
   27.0600   27.2400   36.1600 N   0  0  0  0  0  0  0  0  0  0  0  0
   28.3000   27.7100   36.2400 N   0  0  0  0  0  0  0  0  0  0  0  0
   29.0500   27.9600   35.1500 C   0  0  0  0  0  0  0  0  0  0  0  0
   30.3400   28.4900   35.2600 C   0  0  0  0  0  0  0  0  0  0  0  0
   31.1100   28.8200   34.1400 C   0  0  0  0  0  0  0  0  0  0  0  0
   30.5200   28.6700   32.8800 C   0  0  0  0  0  0  0  0  0  0  0  0
   29.2900   28.0200   32.7700 C   0  0  0  0  0  0  0  0  0  0  0  0
   28.5200   27.7100   33.8900 C   0  0  0  0  0  0  0  0  0  0  0  0
   27.2700   27.0800   33.7600 C   0  0  0  0  0  0  0  0  0  0  0  0
   26.7500   26.8800   32.4900 N   0  0  0  0  0  0  0  0  0  0  0  0
   23.4903   25.0694   36.3287 C   0  0  0  0  0  0  0  0  0  0  0  0
   23.7008   23.7693   35.8352 C   0  0  0  0  0  0  0  0  0  0  0  0
   22.7503   22.7612   36.0415 C   0  0  0  0  0  0  0  0  0  0  0  0
   23.0148   21.3627   35.5403 C   0  0  0  0  0  0  0  0  0  0  0  0
   21.7261   20.6313   35.3024 C   0  0  0  0  0  0  0  0  0  0  0  0
   21.6852   19.6752   34.4846 O   0  0  0  0  0  0  0  0  0  0  0  0
   20.5692   20.9999   35.9943 O   0  0  0  0  0  0  0  0  0  0  0  0
   20.5994   21.9441   37.0637 C   0  0  0  0  0  0  0  0  0  0  0  0
   21.5853   23.0464   36.7772 C   0  0  0  0  0  0  0  0  0  0  0  0
   21.3887   24.3292   37.3048 C   0  0  0  0  0  0  0  0  0  0  0  0
   22.3343   25.3485   37.0819 C   0  0  0  0  0  0  0  0  0  0  0  0
   22.1567   26.6469   37.5880 O   0  0  0  0  0  0  0  0  0  0  0  0
   21.0400   27.0667   38.3653 C   0  0  0  0  0  0  0  0  0  0  0  0
   24.6090   26.8014   36.8938 H   0  0  0  0  0  0  0  0  0  0  0  0
   30.7582   28.6623   36.2441 H   0  0  0  0  0  0  0  0  0  0  0  0
   32.0994   29.2455   34.2469 H   0  0  0  0  0  0  0  0  0  0  0  0
   31.0716   28.9442   31.9898 H   0  0  0  0  0  0  0  0  0  0  0  0
   28.9437   27.8128   31.7669 H   0  0  0  0  0  0  0  0  0  0  0  0
   26.7156   27.6566   31.7925 H   0  0  0  0  0  0  0  0  0  0  0  0
   26.3616   25.9529   32.2111 H   0  0  0  0  0  0  0  0  0  0  0  0
   24.6168   23.5341   35.3072 H   0  0  0  0  0  0  0  0  0  0  0  0
   23.5926   21.4004   34.5910 H   0  0  0  0  0  0  0  0  0  0  0  0
   23.6101   20.8108   36.2980 H   0  0  0  0  0  0  0  0  0  0  0  0
   19.5771   22.3548   37.2052 H   0  0  0  0  0  0  0  0  0  0  0  0
   20.9041   21.4259   37.9977 H   0  0  0  0  0  0  0  0  0  0  0  0
   20.4993   24.5237   37.8890 H   0  0  0  0  0  0  0  0  0  0  0  0
   21.1628   28.1375   38.6270 H   0  0  0  0  0  0  0  0  0  0  0  0
   20.1026   26.9490   37.7818 H   0  0  0  0  0  0  0  0  0  0  0  0
   20.9844   26.4757   39.3038 H   0  0  0  0  0  0  0  0  0  0  0  0
  1  2  1  0
  2  3  2  0
  2  4  1  0
  4  5  2  0
  5  6  1  0
  6  7  2  0
  7  8  1  0
  8  9  2  0
  9 10  1  0
 10 11  2  0
 11 12  1  0
 12 13  2  0
 13 14  1  0
  1 15  1  0
 15 16  2  0
 16 17  1  0
 17 18  1  0
 18 19  1  0
 19 20  2  0
 19 21  1  0
 21 22  1  0
 22 23  1  0
 23 24  1  0
 24 25  2  0
 25 26  1  0
 26 27  1  0
 13  4  1  0
 25 15  1  0
 12  7  1  0
 23 17  2  0
  1 28  1  0
  8 29  1  0
  9 30  1  0
 10 31  1  0
 11 32  1  0
 14 33  1  0
 14 34  1  0
 16 35  1  0
 18 36  1  0
 18 37  1  0
 22 38  1  0
 22 39  1  0
 24 40  1  0
 27 41  1  0
 27 42  1  0
 27 43  1  0
M  END
$$$$
confid_1
     RDKit          3D

 43 46  0  0  0  0  0  0  0  0999 V2000
   24.4800   26.1000   36.1300 N   0  0  0  0  0  0  0  0  0  0  0  0
   25.2500   26.2500   34.9900 C   0  0  0  0  0  0  0  0  0  0  0  0
   24.7400   25.7600   33.9900 O   0  0  0  0  0  0  0  0  0  0  0  0
   26.5900   26.8900   34.9600 C   0  0  0  0  0  0  0  0  0  0  0  0
   27.0600   27.2400   36.1600 N   0  0  0  0  0  0  0  0  0  0  0  0
   28.3000   27.7100   36.2400 N   0  0  0  0  0  0  0  0  0  0  0  0
   29.0500   27.9600   35.1500 C   0  0  0  0  0  0  0  0  0  0  0  0
   30.3400   28.4900   35.2600 C   0  0  0  0  0  0  0  0  0  0  0  0
   31.1100   28.8200   34.1400 C   0  0  0  0  0  0  0  0  0  0  0  0
   30.5200   28.6700   32.8800 C   0  0  0  0  0  0  0  0  0  0  0  0
   29.2900   28.0200   32.7700 C   0  0  0  0  0  0  0  0  0  0  0  0
   28.5200   27.7100   33.8900 C   0  0  0  0  0  0  0  0  0  0  0  0
   27.2700   27.0800   33.7600 C   0  0  0  0  0  0  0  0  0  0  0  0
   26.7500   26.8800   32.4900 N   0  0  0  0  0  0  0  0  0  0  0  0
   23.0435   25.9666   36.1399 C   0  0  0  0  0  0  0  0  0  0  0  0
   22.2514   26.6647   35.2101 C   0  0  0  0  0  0  0  0  0  0  0  0
   20.8545   26.5634   35.2384 C   0  0  0  0  0  0  0  0  0  0  0  0
   20.0271   27.2762   34.1963 C   0  0  0  0  0  0  0  0  0  0  0  0
   18.6450   27.5550   34.7110 C   0  0  0  0  0  0  0  0  0  0  0  0
   17.9653   28.4923   34.2163 O   0  0  0  0  0  0  0  0  0  0  0  0
   18.1014   26.7707   35.7320 O   0  0  0  0  0  0  0  0  0  0  0  0
   18.7410   25.5805   36.1898 C   0  0  0  0  0  0  0  0  0  0  0  0
   20.2376   25.7494   36.2060 C   0  0  0  0  0  0  0  0  0  0  0  0
   21.0209   25.0512   37.1343 C   0  0  0  0  0  0  0  0  0  0  0  0
   22.4245   25.1638   37.1167 C   0  0  0  0  0  0  0  0  0  0  0  0
   23.2337   24.4803   38.0392 O   0  0  0  0  0  0  0  0  0  0  0  0
   22.7434   23.6351   39.0749 C   0  0  0  0  0  0  0  0  0  0  0  0
   24.9746   26.0603   37.0495 H   0  0  0  0  0  0  0  0  0  0  0  0
   30.7582   28.6623   36.2441 H   0  0  0  0  0  0  0  0  0  0  0  0
   32.0994   29.2454   34.2469 H   0  0  0  0  0  0  0  0  0  0  0  0
   31.0716   28.9442   31.9898 H   0  0  0  0  0  0  0  0  0  0  0  0
   28.9437   27.8128   31.7669 H   0  0  0  0  0  0  0  0  0  0  0  0
   26.7152   27.6568   31.7928 H   0  0  0  0  0  0  0  0  0  0  0  0
   26.3612   25.9530   32.2111 H   0  0  0  0  0  0  0  0  0  0  0  0
   22.7209   27.3021   34.4708 H   0  0  0  0  0  0  0  0  0  0  0  0
   19.9554   26.6386   33.2901 H   0  0  0  0  0  0  0  0  0  0  0  0
   20.5114   28.2379   33.9186 H   0  0  0  0  0  0  0  0  0  0  0  0
   18.4831   24.7432   35.5071 H   0  0  0  0  0  0  0  0  0  0  0  0
   18.3589   25.3390   37.2045 H   0  0  0  0  0  0  0  0  0  0  0  0
   20.5302   24.4192   37.8624 H   0  0  0  0  0  0  0  0  0  0  0  0
   23.6017   23.2422   39.6580 H   0  0  0  0  0  0  0  0  0  0  0  0
   22.1875   22.7792   38.6375 H   0  0  0  0  0  0  0  0  0  0  0  0
   22.0842   24.2115   39.7582 H   0  0  0  0  0  0  0  0  0  0  0  0
  1  2  1  0
  2  3  2  0
  2  4  1  0
  4  5  2  0
  5  6  1  0
  6  7  2  0
  7  8  1  0
  8  9  2  0
  9 10  1  0
 10 11  2  0
 11 12  1  0
 12 13  2  0
 13 14  1  0
  1 15  1  0
 15 16  2  0
 16 17  1  0
 17 18  1  0
 18 19  1  0
 19 20  2  0
 19 21  1  0
 21 22  1  0
 22 23  1  0
 23 24  1  0
 24 25  2  0
 25 26  1  0
 26 27  1  0
 13  4  1  0
 25 15  1  0
 12  7  1  0
 23 17  2  0
  1 28  1  0
  8 29  1  0
  9 30  1  0
 10 31  1  0
 11 32  1  0
 14 33  1  0
 14 34  1  0
 16 35  1  0
 18 36  1  0
 18 37  1  0
 22 38  1  0
 22 39  1  0
 24 40  1  0
 27 41  1  0
 27 42  1  0
 27 43  1  0
M  END
$$$$
confid_2
     RDKit          3D

 43 46  0  0  0  0  0  0  0  0999 V2000
   24.4800   26.1000   36.1300 N   0  0  0  0  0  0  0  0  0  0  0  0
   25.2500   26.2500   34.9900 C   0  0  0  0  0  0  0  0  0  0  0  0
   24.7400   25.7600   33.9900 O   0  0  0  0  0  0  0  0  0  0  0  0
   26.5900   26.8900   34.9600 C   0  0  0  0  0  0  0  0  0  0  0  0
   27.0600   27.2400   36.1600 N   0  0  0  0  0  0  0  0  0  0  0  0
   28.3000   27.7100   36.2400 N   0  0  0  0  0  0  0  0  0  0  0  0
   29.0500   27.9600   35.1500 C   0  0  0  0  0  0  0  0  0  0  0  0
   30.3400   28.4900   35.2600 C   0  0  0  0  0  0  0  0  0  0  0  0
   31.1100   28.8200   34.1400 C   0  0  0  0  0  0  0  0  0  0  0  0
   30.5200   28.6700   32.8800 C   0  0  0  0  0  0  0  0  0  0  0  0
   29.2900   28.0200   32.7700 C   0  0  0  0  0  0  0  0  0  0  0  0
   28.5200   27.7100   33.8900 C   0  0  0  0  0  0  0  0  0  0  0  0
   27.2700   27.0800   33.7600 C   0  0  0  0  0  0  0  0  0  0  0  0
   26.7500   26.8800   32.4900 N   0  0  0  0  0  0  0  0  0  0  0  0
   23.4974   25.0636   36.3324 C   0  0  0  0  0  0  0  0  0  0  0  0
   23.7165   23.7629   35.8442 C   0  0  0  0  0  0  0  0  0  0  0  0
   22.7807   22.7450   36.0702 C   0  0  0  0  0  0  0  0  0  0  0  0
   23.0088   21.3698   35.4918 C   0  0  0  0  0  0  0  0  0  0  0  0
   22.2989   20.3265   36.3042 C   0  0  0  0  0  0  0  0  0  0  0  0
   22.7055   19.1351   36.2947 O   0  0  0  0  0  0  0  0  0  0  0  0
   21.1792   20.6691   37.0669 O   0  0  0  0  0  0  0  0  0  0  0  0
   20.5671   21.9544   36.9714 C   0  0  0  0  0  0  0  0  0  0  0  0
   21.6066   23.0297   36.7914 C   0  0  0  0  0  0  0  0  0  0  0  0
   21.3838   24.3229   37.2818 C   0  0  0  0  0  0  0  0  0  0  0  0
   22.3306   25.3432   37.0683 C   0  0  0  0  0  0  0  0  0  0  0  0
   22.1382   26.6460   37.5571 O   0  0  0  0  0  0  0  0  0  0  0  0
   21.0083   27.0677   38.3140 C   0  0  0  0  0  0  0  0  0  0  0  0
   24.6032   26.8058   36.8907 H   0  0  0  0  0  0  0  0  0  0  0  0
   30.7582   28.6623   36.2441 H   0  0  0  0  0  0  0  0  0  0  0  0
   32.0994   29.2454   34.2469 H   0  0  0  0  0  0  0  0  0  0  0  0
   31.0716   28.9442   31.9898 H   0  0  0  0  0  0  0  0  0  0  0  0
   28.9437   27.8129   31.7669 H   0  0  0  0  0  0  0  0  0  0  0  0
   26.7156   27.6566   31.7925 H   0  0  0  0  0  0  0  0  0  0  0  0
   26.3616   25.9529   32.2111 H   0  0  0  0  0  0  0  0  0  0  0  0
   24.6258   23.5358   35.3016 H   0  0  0  0  0  0  0  0  0  0  0  0
   22.6218   21.3444   34.4514 H   0  0  0  0  0  0  0  0  0  0  0  0
   24.0964   21.1385   35.4733 H   0  0  0  0  0  0  0  0  0  0  0  0
   19.8840   21.9675   36.0959 H   0  0  0  0  0  0  0  0  0  0  0  0
   19.9678   22.1324   37.8897 H   0  0  0  0  0  0  0  0  0  0  0  0
   20.4703   24.5265   37.8242 H   0  0  0  0  0  0  0  0  0  0  0  0
   20.0807   26.9455   37.7158 H   0  0  0  0  0  0  0  0  0  0  0  0
   20.9383   26.4816   39.2547 H   0  0  0  0  0  0  0  0  0  0  0  0
   21.1251   28.1401   38.5720 H   0  0  0  0  0  0  0  0  0  0  0  0
  1  2  1  0
  2  3  2  0
  2  4  1  0
  4  5  2  0
  5  6  1  0
  6  7  2  0
  7  8  1  0
  8  9  2  0
  9 10  1  0
 10 11  2  0
 11 12  1  0
 12 13  2  0
 13 14  1  0
  1 15  1  0
 15 16  2  0
 16 17  1  0
 17 18  1  0
 18 19  1  0
 19 20  2  0
 19 21  1  0
 21 22  1  0
 22 23  1  0
 23 24  1  0
 24 25  2  0
 25 26  1  0
 26 27  1  0
 13  4  1  0
 25 15  1  0
 12  7  1  0
 23 17  2  0
  1 28  1  0
  8 29  1  0
  9 30  1  0
 10 31  1  0
 11 32  1  0
 14 33  1  0
 14 34  1  0
 16 35  1  0
 18 36  1  0
 18 37  1  0
 22 38  1  0
 22 39  1  0
 24 40  1  0
 27 41  1  0
 27 42  1  0
 27 43  1  0
M  END
$$$$
confid_3
     RDKit          3D

 43 46  0  0  0  0  0  0  0  0999 V2000
   24.4800   26.1000   36.1300 N   0  0  0  0  0  0  0  0  0  0  0  0
   25.2500   26.2500   34.9900 C   0  0  0  0  0  0  0  0  0  0  0  0
   24.7400   25.7600   33.9900 O   0  0  0  0  0  0  0  0  0  0  0  0
   26.5900   26.8900   34.9600 C   0  0  0  0  0  0  0  0  0  0  0  0
   27.0600   27.2400   36.1600 N   0  0  0  0  0  0  0  0  0  0  0  0
   28.3000   27.7100   36.2400 N   0  0  0  0  0  0  0  0  0  0  0  0
   29.0500   27.9600   35.1500 C   0  0  0  0  0  0  0  0  0  0  0  0
   30.3400   28.4900   35.2600 C   0  0  0  0  0  0  0  0  0  0  0  0
   31.1100   28.8200   34.1400 C   0  0  0  0  0  0  0  0  0  0  0  0
   30.5200   28.6700   32.8800 C   0  0  0  0  0  0  0  0  0  0  0  0
   29.2900   28.0200   32.7700 C   0  0  0  0  0  0  0  0  0  0  0  0
   28.5200   27.7100   33.8900 C   0  0  0  0  0  0  0  0  0  0  0  0
   27.2700   27.0800   33.7600 C   0  0  0  0  0  0  0  0  0  0  0  0
   26.7500   26.8800   32.4900 N   0  0  0  0  0  0  0  0  0  0  0  0
   23.0454   25.9490   36.1410 C   0  0  0  0  0  0  0  0  0  0  0  0
   22.2449   26.6466   35.2191 C   0  0  0  0  0  0  0  0  0  0  0  0
   20.8500   26.5190   35.2404 C   0  0  0  0  0  0  0  0  0  0  0  0
   20.0062   27.3099   34.2712 C   0  0  0  0  0  0  0  0  0  0  0  0
   18.6968   26.6194   34.0239 C   0  0  0  0  0  0  0  0  0  0  0  0
   18.0695   26.8212   32.9512 O   0  0  0  0  0  0  0  0  0  0  0  0
   18.1630   25.7569   34.9856 O   0  0  0  0  0  0  0  0  0  0  0  0
   18.7398   25.6239   36.2837 C   0  0  0  0  0  0  0  0  0  0  0  0
   20.2427   25.7034   36.2132 C   0  0  0  0  0  0  0  0  0  0  0  0
   21.0332   25.0364   37.1583 C   0  0  0  0  0  0  0  0  0  0  0  0
   22.4361   25.1491   37.1263 C   0  0  0  0  0  0  0  0  0  0  0  0
   23.2540   24.4794   38.0513 O   0  0  0  0  0  0  0  0  0  0  0  0
   22.7745   23.6431   39.0996 C   0  0  0  0  0  0  0  0  0  0  0  0
   24.9741   26.0749   37.0504 H   0  0  0  0  0  0  0  0  0  0  0  0
   30.7582   28.6624   36.2441 H   0  0  0  0  0  0  0  0  0  0  0  0
   32.0994   29.2454   34.2469 H   0  0  0  0  0  0  0  0  0  0  0  0
   31.0715   28.9443   31.9898 H   0  0  0  0  0  0  0  0  0  0  0  0
   28.9436   27.8129   31.7670 H   0  0  0  0  0  0  0  0  0  0  0  0
   26.3614   25.9530   32.2110 H   0  0  0  0  0  0  0  0  0  0  0  0
   26.7150   27.6569   31.7929 H   0  0  0  0  0  0  0  0  0  0  0  0
   22.7062   27.3086   34.4964 H   0  0  0  0  0  0  0  0  0  0  0  0
   20.5442   27.4275   33.3049 H   0  0  0  0  0  0  0  0  0  0  0  0
   19.8111   28.3168   34.6964 H   0  0  0  0  0  0  0  0  0  0  0  0
   18.3688   26.4449   36.9327 H   0  0  0  0  0  0  0  0  0  0  0  0
   18.4147   24.6552   36.7191 H   0  0  0  0  0  0  0  0  0  0  0  0
   20.5481   24.4337   37.9143 H   0  0  0  0  0  0  0  0  0  0  0  0
   23.6392   23.2485   39.6708 H   0  0  0  0  0  0  0  0  0  0  0  0
   22.1298   24.2267   39.7903 H   0  0  0  0  0  0  0  0  0  0  0  0
   22.2083   22.7859   38.6775 H   0  0  0  0  0  0  0  0  0  0  0  0
  1  2  1  0
  2  3  2  0
  2  4  1  0
  4  5  2  0
  5  6  1  0
  6  7  2  0
  7  8  1  0
  8  9  2  0
  9 10  1  0
 10 11  2  0
 11 12  1  0
 12 13  2  0
 13 14  1  0
  1 15  1  0
 15 16  2  0
 16 17  1  0
 17 18  1  0
 18 19  1  0
 19 20  2  0
 19 21  1  0
 21 22  1  0
 22 23  1  0
 23 24  1  0
 24 25  2  0
 25 26  1  0
 26 27  1  0
 13  4  1  0
 25 15  1  0
 12  7  1  0
 23 17  2  0
  1 28  1  0
  8 29  1  0
  9 30  1  0
 10 31  1  0
 11 32  1  0
 14 33  1  0
 14 34  1  0
 16 35  1  0
 18 36  1  0
 18 37  1  0
 22 38  1  0
 22 39  1  0
 24 40  1  0
 27 41  1  0
 27 42  1  0
 27 43  1  0
M  END
$$$$
confid_4
     RDKit          3D

 43 46  0  0  0  0  0  0  0  0999 V2000
   24.4800   26.1000   36.1300 N   0  0  0  0  0  0  0  0  0  0  0  0
   25.2500   26.2500   34.9900 C   0  0  0  0  0  0  0  0  0  0  0  0
   24.7400   25.7600   33.9900 O   0  0  0  0  0  0  0  0  0  0  0  0
   26.5900   26.8900   34.9600 C   0  0  0  0  0  0  0  0  0  0  0  0
   27.0600   27.2400   36.1600 N   0  0  0  0  0  0  0  0  0  0  0  0
   28.3000   27.7100   36.2400 N   0  0  0  0  0  0  0  0  0  0  0  0
   29.0500   27.9600   35.1500 C   0  0  0  0  0  0  0  0  0  0  0  0
   30.3400   28.4900   35.2600 C   0  0  0  0  0  0  0  0  0  0  0  0
   31.1100   28.8200   34.1400 C   0  0  0  0  0  0  0  0  0  0  0  0
   30.5200   28.6700   32.8800 C   0  0  0  0  0  0  0  0  0  0  0  0
   29.2900   28.0200   32.7700 C   0  0  0  0  0  0  0  0  0  0  0  0
   28.5200   27.7100   33.8900 C   0  0  0  0  0  0  0  0  0  0  0  0
   27.2700   27.0800   33.7600 C   0  0  0  0  0  0  0  0  0  0  0  0
   26.7500   26.8800   32.4900 N   0  0  0  0  0  0  0  0  0  0  0  0
   23.1022   25.6801   36.1437 C   0  0  0  0  0  0  0  0  0  0  0  0
   22.1873   26.2046   35.2146 C   0  0  0  0  0  0  0  0  0  0  0  0
   20.8511   25.7876   35.2111 C   0  0  0  0  0  0  0  0  0  0  0  0
   19.8756   26.3955   34.2358 C   0  0  0  0  0  0  0  0  0  0  0  0
   18.7457   25.4503   33.9573 C   0  0  0  0  0  0  0  0  0  0  0  0
   18.1006   25.5372   32.8816 O   0  0  0  0  0  0  0  0  0  0  0  0
   18.4038   24.4694   34.8878 O   0  0  0  0  0  0  0  0  0  0  0  0
   18.9668   24.4482   36.1986 C   0  0  0  0  0  0  0  0  0  0  0  0
   20.4177   24.8459   36.1592 C   0  0  0  0  0  0  0  0  0  0  0  0
   21.3139   24.3605   37.1217 C   0  0  0  0  0  0  0  0  0  0  0  0
   22.6587   24.7705   37.1185 C   0  0  0  0  0  0  0  0  0  0  0  0
   23.5797   24.2887   38.0609 O   0  0  0  0  0  0  0  0  0  0  0  0
   23.2568   23.3951   39.1218 C   0  0  0  0  0  0  0  0  0  0  0  0
   24.9437   26.2280   37.0574 H   0  0  0  0  0  0  0  0  0  0  0  0
   30.7583   28.6622   36.2440 H   0  0  0  0  0  0  0  0  0  0  0  0
   32.0988   29.2467   34.2468 H   0  0  0  0  0  0  0  0  0  0  0  0
   31.0673   28.9536   31.9901 H   0  0  0  0  0  0  0  0  0  0  0  0
   28.9260   27.8582   31.7656 H   0  0  0  0  0  0  0  0  0  0  0  0
   27.2972   26.3803   31.7545 H   0  0  0  0  0  0  0  0  0  0  0  0
   25.7668   27.1491   32.2661 H   0  0  0  0  0  0  0  0  0  0  0  0
   22.5133   26.9509   34.5019 H   0  0  0  0  0  0  0  0  0  0  0  0
   19.4670   27.3423   34.6542 H   0  0  0  0  0  0  0  0  0  0  0  0
   20.3934   26.6237   33.2776 H   0  0  0  0  0  0  0  0  0  0  0  0
   18.4163   25.1681   36.8456 H   0  0  0  0  0  0  0  0  0  0  0  0
   18.8467   23.4284   36.6324 H   0  0  0  0  0  0  0  0  0  0  0  0
   20.9586   23.6500   37.8522 H   0  0  0  0  0  0  0  0  0  0  0  0
   22.4503   23.8319   39.7528 H   0  0  0  0  0  0  0  0  0  0  0  0
   24.1597   23.2320   39.7522 H   0  0  0  0  0  0  0  0  0  0  0  0
   22.9319   22.4171   38.7035 H   0  0  0  0  0  0  0  0  0  0  0  0
  1  2  1  0
  2  3  2  0
  2  4  1  0
  4  5  2  0
  5  6  1  0
  6  7  2  0
  7  8  1  0
  8  9  2  0
  9 10  1  0
 10 11  2  0
 11 12  1  0
 12 13  2  0
 13 14  1  0
  1 15  1  0
 15 16  2  0
 16 17  1  0
 17 18  1  0
 18 19  1  0
 19 20  2  0
 19 21  1  0
 21 22  1  0
 22 23  1  0
 23 24  1  0
 24 25  2  0
 25 26  1  0
 26 27  1  0
 13  4  1  0
 25 15  1  0
 12  7  1  0
 23 17  2  0
  1 28  1  0
  8 29  1  0
  9 30  1  0
 10 31  1  0
 11 32  1  0
 14 33  1  0
 14 34  1  0
 16 35  1  0
 18 36  1  0
 18 37  1  0
 22 38  1  0
 22 39  1  0
 24 40  1  0
 27 41  1  0
 27 42  1  0
 27 43  1  0
M  END
$$$$
confid_5
     RDKit          3D

 43 46  0  0  0  0  0  0  0  0999 V2000
   24.4800   26.1000   36.1300 N   0  0  0  0  0  0  0  0  0  0  0  0
   25.2500   26.2500   34.9900 C   0  0  0  0  0  0  0  0  0  0  0  0
   24.7400   25.7600   33.9900 O   0  0  0  0  0  0  0  0  0  0  0  0
   26.5900   26.8900   34.9600 C   0  0  0  0  0  0  0  0  0  0  0  0
   27.0600   27.2400   36.1600 N   0  0  0  0  0  0  0  0  0  0  0  0
   28.3000   27.7100   36.2400 N   0  0  0  0  0  0  0  0  0  0  0  0
   29.0500   27.9600   35.1500 C   0  0  0  0  0  0  0  0  0  0  0  0
   30.3400   28.4900   35.2600 C   0  0  0  0  0  0  0  0  0  0  0  0
   31.1100   28.8200   34.1400 C   0  0  0  0  0  0  0  0  0  0  0  0
   30.5200   28.6700   32.8800 C   0  0  0  0  0  0  0  0  0  0  0  0
   29.2900   28.0200   32.7700 C   0  0  0  0  0  0  0  0  0  0  0  0
   28.5200   27.7100   33.8900 C   0  0  0  0  0  0  0  0  0  0  0  0
   27.2700   27.0800   33.7600 C   0  0  0  0  0  0  0  0  0  0  0  0
   26.7500   26.8800   32.4900 N   0  0  0  0  0  0  0  0  0  0  0  0
   23.4447   25.1069   36.2826 C   0  0  0  0  0  0  0  0  0  0  0  0
   22.3471   25.0748   35.4058 C   0  0  0  0  0  0  0  0  0  0  0  0
   21.3557   24.0918   35.5350 C   0  0  0  0  0  0  0  0  0  0  0  0
   20.1650   24.0889   34.6082 C   0  0  0  0  0  0  0  0  0  0  0  0
   19.6275   22.6965   34.4487 C   0  0  0  0  0  0  0  0  0  0  0  0
   18.9635   22.3917   33.4258 O   0  0  0  0  0  0  0  0  0  0  0  0
   19.8350   21.7449   35.4509 O   0  0  0  0  0  0  0  0  0  0  0  0
   20.3647   22.1081   36.7249 C   0  0  0  0  0  0  0  0  0  0  0  0
   21.4459   23.1471   36.5752 C   0  0  0  0  0  0  0  0  0  0  0  0
   22.5042   23.2159   37.4925 C   0  0  0  0  0  0  0  0  0  0  0  0
   23.5084   24.1946   37.3541 C   0  0  0  0  0  0  0  0  0  0  0  0
   24.5843   24.2856   38.2528 O   0  0  0  0  0  0  0  0  0  0  0  0
   24.7090   23.5116   39.4440 C   0  0  0  0  0  0  0  0  0  0  0  0
   24.8082   26.5656   37.0067 H   0  0  0  0  0  0  0  0  0  0  0  0
   30.7581   28.6625   36.2439 H   0  0  0  0  0  0  0  0  0  0  0  0
   32.0987   29.2472   34.2473 H   0  0  0  0  0  0  0  0  0  0  0  0
   31.0672   28.9537   31.9900 H   0  0  0  0  0  0  0  0  0  0  0  0
   28.9259   27.8586   31.7653 H   0  0  0  0  0  0  0  0  0  0  0  0
   27.2972   26.3796   31.7550 H   0  0  0  0  0  0  0  0  0  0  0  0
   25.7667   27.1488   32.2661 H   0  0  0  0  0  0  0  0  0  0  0  0
   22.2572   25.8247   34.6313 H   0  0  0  0  0  0  0  0  0  0  0  0
   20.4535   24.4867   33.6107 H   0  0  0  0  0  0  0  0  0  0  0  0
   19.3693   24.7333   35.0366 H   0  0  0  0  0  0  0  0  0  0  0  0
   19.5474   22.5294   37.3500 H   0  0  0  0  0  0  0  0  0  0  0  0
   20.7586   21.1949   37.2261 H   0  0  0  0  0  0  0  0  0  0  0  0
   22.5445   22.4966   38.3003 H   0  0  0  0  0  0  0  0  0  0  0  0
   23.8258   23.6786   40.0996 H   0  0  0  0  0  0  0  0  0  0  0  0
   25.6222   23.8285   39.9871 H   0  0  0  0  0  0  0  0  0  0  0  0
   24.8027   22.4331   39.1949 H   0  0  0  0  0  0  0  0  0  0  0  0
  1  2  1  0
  2  3  2  0
  2  4  1  0
  4  5  2  0
  5  6  1  0
  6  7  2  0
  7  8  1  0
  8  9  2  0
  9 10  1  0
 10 11  2  0
 11 12  1  0
 12 13  2  0
 13 14  1  0
  1 15  1  0
 15 16  2  0
 16 17  1  0
 17 18  1  0
 18 19  1  0
 19 20  2  0
 19 21  1  0
 21 22  1  0
 22 23  1  0
 23 24  1  0
 24 25  2  0
 25 26  1  0
 26 27  1  0
 13  4  1  0
 25 15  1  0
 12  7  1  0
 23 17  2  0
  1 28  1  0
  8 29  1  0
  9 30  1  0
 10 31  1  0
 11 32  1  0
 14 33  1  0
 14 34  1  0
 16 35  1  0
 18 36  1  0
 18 37  1  0
 22 38  1  0
 22 39  1  0
 24 40  1  0
 27 41  1  0
 27 42  1  0
 27 43  1  0
M  END
$$$$
confid_6
     RDKit          3D

 43 46  0  0  0  0  0  0  0  0999 V2000
   24.4800   26.1000   36.1300 N   0  0  0  0  0  0  0  0  0  0  0  0
   25.2500   26.2500   34.9900 C   0  0  0  0  0  0  0  0  0  0  0  0
   24.7400   25.7600   33.9900 O   0  0  0  0  0  0  0  0  0  0  0  0
   26.5900   26.8900   34.9600 C   0  0  0  0  0  0  0  0  0  0  0  0
   27.0600   27.2400   36.1600 N   0  0  0  0  0  0  0  0  0  0  0  0
   28.3000   27.7100   36.2400 N   0  0  0  0  0  0  0  0  0  0  0  0
   29.0500   27.9600   35.1500 C   0  0  0  0  0  0  0  0  0  0  0  0
   30.3400   28.4900   35.2600 C   0  0  0  0  0  0  0  0  0  0  0  0
   31.1100   28.8200   34.1400 C   0  0  0  0  0  0  0  0  0  0  0  0
   30.5200   28.6700   32.8800 C   0  0  0  0  0  0  0  0  0  0  0  0
   29.2900   28.0200   32.7700 C   0  0  0  0  0  0  0  0  0  0  0  0
   28.5200   27.7100   33.8900 C   0  0  0  0  0  0  0  0  0  0  0  0
   27.2700   27.0800   33.7600 C   0  0  0  0  0  0  0  0  0  0  0  0
   26.7500   26.8800   32.4900 N   0  0  0  0  0  0  0  0  0  0  0  0
   23.1226   25.6186   36.1641 C   0  0  0  0  0  0  0  0  0  0  0  0
   22.1656   26.1054   35.2562 C   0  0  0  0  0  0  0  0  0  0  0  0
   20.8314   25.6781   35.3245 C   0  0  0  0  0  0  0  0  0  0  0  0
   19.8297   26.1680   34.3043 C   0  0  0  0  0  0  0  0  0  0  0  0
   18.4318   26.1082   34.8509 C   0  0  0  0  0  0  0  0  0  0  0  0
   17.5315   26.8379   34.3580 O   0  0  0  0  0  0  0  0  0  0  0  0
   18.1201   25.2379   35.9004 O   0  0  0  0  0  0  0  0  0  0  0  0
   19.0331   24.2354   36.3434 C   0  0  0  0  0  0  0  0  0  0  0  0
   20.4498   24.7514   36.3134 C   0  0  0  0  0  0  0  0  0  0  0  0
   21.4016   24.2649   37.2212 C   0  0  0  0  0  0  0  0  0  0  0  0
   22.7379   24.7010   37.1601 C   0  0  0  0  0  0  0  0  0  0  0  0
   23.7123   24.2313   38.0565 O   0  0  0  0  0  0  0  0  0  0  0  0
   23.4709   23.2881   39.0962 C   0  0  0  0  0  0  0  0  0  0  0  0
   24.9307   26.2833   37.0539 H   0  0  0  0  0  0  0  0  0  0  0  0
   30.7577   28.6634   36.2440 H   0  0  0  0  0  0  0  0  0  0  0  0
   32.0981   29.2483   34.2471 H   0  0  0  0  0  0  0  0  0  0  0  0
   31.0667   28.9545   31.9900 H   0  0  0  0  0  0  0  0  0  0  0  0
   28.9261   27.8584   31.7655 H   0  0  0  0  0  0  0  0  0  0  0  0
   25.7672   27.1504   32.2658 H   0  0  0  0  0  0  0  0  0  0  0  0
   27.2971   26.3792   31.7552 H   0  0  0  0  0  0  0  0  0  0  0  0
   22.4535   26.8296   34.5035 H   0  0  0  0  0  0  0  0  0  0  0  0
   20.0614   27.2184   34.0216 H   0  0  0  0  0  0  0  0  0  0  0  0
   19.8910   25.5333   33.3940 H   0  0  0  0  0  0  0  0  0  0  0  0
   18.9599   23.3522   35.6721 H   0  0  0  0  0  0  0  0  0  0  0  0
   18.7463   23.9238   37.3708 H   0  0  0  0  0  0  0  0  0  0  0  0
   21.0912   23.5455   37.9677 H   0  0  0  0  0  0  0  0  0  0  0  0
   23.1125   22.3275   38.6645 H   0  0  0  0  0  0  0  0  0  0  0  0
   24.4178   23.0986   39.6436 H   0  0  0  0  0  0  0  0  0  0  0  0
   22.7214   23.6915   39.8102 H   0  0  0  0  0  0  0  0  0  0  0  0
  1  2  1  0
  2  3  2  0
  2  4  1  0
  4  5  2  0
  5  6  1  0
  6  7  2  0
  7  8  1  0
  8  9  2  0
  9 10  1  0
 10 11  2  0
 11 12  1  0
 12 13  2  0
 13 14  1  0
  1 15  1  0
 15 16  2  0
 16 17  1  0
 17 18  1  0
 18 19  1  0
 19 20  2  0
 19 21  1  0
 21 22  1  0
 22 23  1  0
 23 24  1  0
 24 25  2  0
 25 26  1  0
 26 27  1  0
 13  4  1  0
 25 15  1  0
 12  7  1  0
 23 17  2  0
  1 28  1  0
  8 29  1  0
  9 30  1  0
 10 31  1  0
 11 32  1  0
 14 33  1  0
 14 34  1  0
 16 35  1  0
 18 36  1  0
 18 37  1  0
 22 38  1  0
 22 39  1  0
 24 40  1  0
 27 41  1  0
 27 42  1  0
 27 43  1  0
M  END
$$$$
confid_7
     RDKit          3D

 43 46  0  0  0  0  0  0  0  0999 V2000
   24.4800   26.1000   36.1300 N   0  0  0  0  0  0  0  0  0  0  0  0
   25.2500   26.2500   34.9900 C   0  0  0  0  0  0  0  0  0  0  0  0
   24.7400   25.7600   33.9900 O   0  0  0  0  0  0  0  0  0  0  0  0
   26.5900   26.8900   34.9600 C   0  0  0  0  0  0  0  0  0  0  0  0
   27.0600   27.2400   36.1600 N   0  0  0  0  0  0  0  0  0  0  0  0
   28.3000   27.7100   36.2400 N   0  0  0  0  0  0  0  0  0  0  0  0
   29.0500   27.9600   35.1500 C   0  0  0  0  0  0  0  0  0  0  0  0
   30.3400   28.4900   35.2600 C   0  0  0  0  0  0  0  0  0  0  0  0
   31.1100   28.8200   34.1400 C   0  0  0  0  0  0  0  0  0  0  0  0
   30.5200   28.6700   32.8800 C   0  0  0  0  0  0  0  0  0  0  0  0
   29.2900   28.0200   32.7700 C   0  0  0  0  0  0  0  0  0  0  0  0
   28.5200   27.7100   33.8900 C   0  0  0  0  0  0  0  0  0  0  0  0
   27.2700   27.0800   33.7600 C   0  0  0  0  0  0  0  0  0  0  0  0
   26.7500   26.8800   32.4900 N   0  0  0  0  0  0  0  0  0  0  0  0
   23.0646   25.8240   36.1304 C   0  0  0  0  0  0  0  0  0  0  0  0
   22.2096   26.4888   35.2365 C   0  0  0  0  0  0  0  0  0  0  0  0
   20.8335   26.2253   35.2323 C   0  0  0  0  0  0  0  0  0  0  0  0
   19.9259   26.9897   34.3009 C   0  0  0  0  0  0  0  0  0  0  0  0
   18.6840   26.2032   34.0032 C   0  0  0  0  0  0  0  0  0  0  0  0
   18.0347   26.4276   32.9481 O   0  0  0  0  0  0  0  0  0  0  0  0
   18.2333   25.2304   34.8997 O   0  0  0  0  0  0  0  0  0  0  0  0
   18.8134   25.0685   36.1936 C   0  0  0  0  0  0  0  0  0  0  0  0
   20.3006   25.2988   36.1485 C   0  0  0  0  0  0  0  0  0  0  0  0
   21.1440   24.6639   37.0695 C   0  0  0  0  0  0  0  0  0  0  0  0
   22.5281   24.9231   37.0690 C   0  0  0  0  0  0  0  0  0  0  0  0
   23.3987   24.3028   37.9792 O   0  0  0  0  0  0  0  0  0  0  0  0
   22.9951   23.3830   38.9897 C   0  0  0  0  0  0  0  0  0  0  0  0
   24.9659   26.1158   37.0550 H   0  0  0  0  0  0  0  0  0  0  0  0
   30.7582   28.6623   36.2441 H   0  0  0  0  0  0  0  0  0  0  0  0
   32.0995   29.2453   34.2469 H   0  0  0  0  0  0  0  0  0  0  0  0
   31.0715   28.9442   31.9898 H   0  0  0  0  0  0  0  0  0  0  0  0
   28.9437   27.8128   31.7670 H   0  0  0  0  0  0  0  0  0  0  0  0
   26.7152   27.6568   31.7927 H   0  0  0  0  0  0  0  0  0  0  0  0
   26.3614   25.9529   32.2110 H   0  0  0  0  0  0  0  0  0  0  0  0
   22.6140   27.2256   34.5522 H   0  0  0  0  0  0  0  0  0  0  0  0
   19.6409   27.9507   34.7781 H   0  0  0  0  0  0  0  0  0  0  0  0
   20.4548   27.2073   33.3471 H   0  0  0  0  0  0  0  0  0  0  0  0
   18.3607   25.8035   36.8906 H   0  0  0  0  0  0  0  0  0  0  0  0
   18.5829   24.0466   36.5619 H   0  0  0  0  0  0  0  0  0  0  0  0
   20.7147   23.9745   37.7840 H   0  0  0  0  0  0  0  0  0  0  0  0
   23.8852   23.0792   39.5788 H   0  0  0  0  0  0  0  0  0  0  0  0
   22.5497   22.4766   38.5260 H   0  0  0  0  0  0  0  0  0  0  0  0
   22.2630   23.8632   39.6743 H   0  0  0  0  0  0  0  0  0  0  0  0
  1  2  1  0
  2  3  2  0
  2  4  1  0
  4  5  2  0
  5  6  1  0
  6  7  2  0
  7  8  1  0
  8  9  2  0
  9 10  1  0
 10 11  2  0
 11 12  1  0
 12 13  2  0
 13 14  1  0
  1 15  1  0
 15 16  2  0
 16 17  1  0
 17 18  1  0
 18 19  1  0
 19 20  2  0
 19 21  1  0
 21 22  1  0
 22 23  1  0
 23 24  1  0
 24 25  2  0
 25 26  1  0
 26 27  1  0
 13  4  1  0
 25 15  1  0
 12  7  1  0
 23 17  2  0
  1 28  1  0
  8 29  1  0
  9 30  1  0
 10 31  1  0
 11 32  1  0
 14 33  1  0
 14 34  1  0
 16 35  1  0
 18 36  1  0
 18 37  1  0
 22 38  1  0
 22 39  1  0
 24 40  1  0
 27 41  1  0
 27 42  1  0
 27 43  1  0
M  END
$$$$
