confid_0
     RDKit          3D

 44 48  0  0  0  0  0  0  0  0999 V2000
   24.6900   26.1200   35.5300 N   0  0  0  0  0  0  0  0  0  0  0  0
   25.6600   25.6700   34.6600 C   0  0  0  0  0  0  0  0  0  0  0  0
   25.2400   25.0100   33.7200 O   0  0  0  0  0  0  0  0  0  0  0  0
   27.0300   26.2200   34.8800 C   0  0  0  0  0  0  0  0  0  0  0  0
   27.3500   26.7300   36.0700 N   0  0  0  0  0  0  0  0  0  0  0  0
   28.5700   27.1800   36.3300 N   0  0  0  0  0  0  0  0  0  0  0  0
   29.5300   27.1100   35.3900 C   0  0  0  0  0  0  0  0  0  0  0  0
   30.8300   27.5700   35.6500 C   0  0  0  0  0  0  0  0  0  0  0  0
   31.8500   27.5400   34.6900 C   0  0  0  0  0  0  0  0  0  0  0  0
   31.5100   27.1200   33.4000 C   0  0  0  0  0  0  0  0  0  0  0  0
   30.2200   26.6300   33.1100 C   0  0  0  0  0  0  0  0  0  0  0  0
   29.2400   26.6600   34.1000 C   0  0  0  0  0  0  0  0  0  0  0  0
   27.9300   26.2600   33.8100 C   0  0  0  0  0  0  0  0  0  0  0  0
   27.5200   25.7100   32.6100 N   0  0  0  0  0  0  0  0  0  0  0  0
   23.3137   26.3563   35.1767 C   0  0  0  0  0  0  0  0  0  0  0  0
   22.9696   26.4575   33.9185 N   0  0  0  0  0  0  0  0  0  0  0  0
   21.6362   26.7084   33.4622 C   0  0  0  0  0  0  0  0  0  0  0  0
   20.6531   25.8963   33.8241 C   0  0  0  0  0  0  0  0  0  0  0  0
   19.1562   25.8266   33.8415 C   0  0  0  0  0  0  0  0  0  0  0  0
   19.0961   24.6470   34.5820 O   0  0  0  0  0  0  0  0  0  0  0  0
   20.4871   24.5924   34.5511 C   0  0  0  0  0  0  0  0  0  0  0  0
   21.1225   24.5277   35.9570 C   0  0  0  0  0  0  0  0  0  0  0  0
   21.3309   25.8764   36.6170 C   0  0  0  0  0  0  0  0  0  0  0  0
   22.3592   26.6905   36.2673 C   0  0  0  0  0  0  0  0  0  0  0  0
   22.5732   27.9289   36.9606 N   0  0  0  0  0  0  0  0  0  0  0  0
   21.8084   28.3461   37.8904 N   0  0  0  0  0  0  0  0  0  0  0  0
   20.6728   27.5976   38.3214 C   0  0  0  0  0  0  0  0  0  0  0  0
   19.9188   28.0673   39.2132 O   0  0  0  0  0  0  0  0  0  0  0  0
   20.3870   26.2486   37.7373 C   0  0  0  0  0  0  0  0  0  0  0  0
   24.9518   26.2897   36.5281 H   0  0  0  0  0  0  0  0  0  0  0  0
   31.0672   27.9418   36.6392 H   0  0  0  0  0  0  0  0  0  0  0  0
   32.8483   27.8887   34.9210 H   0  0  0  0  0  0  0  0  0  0  0  0
   32.2640   27.1262   32.6235 H   0  0  0  0  0  0  0  0  0  0  0  0
   30.0101   26.3033   32.1003 H   0  0  0  0  0  0  0  0  0  0  0  0
   26.6932   26.1018   32.1060 H   0  0  0  0  0  0  0  0  0  0  0  0
   28.1317   25.0439   32.0890 H   0  0  0  0  0  0  0  0  0  0  0  0
   21.4237   27.5927   32.8769 H   0  0  0  0  0  0  0  0  0  0  0  0
   18.7091   26.6767   34.4012 H   0  0  0  0  0  0  0  0  0  0  0  0
   18.7288   25.6944   32.8226 H   0  0  0  0  0  0  0  0  0  0  0  0
   20.8277   23.7366   33.9238 H   0  0  0  0  0  0  0  0  0  0  0  0
   20.4851   23.8824   36.5997 H   0  0  0  0  0  0  0  0  0  0  0  0
   22.1018   24.0071   35.8878 H   0  0  0  0  0  0  0  0  0  0  0  0
   20.4690   25.4910   38.5454 H   0  0  0  0  0  0  0  0  0  0  0  0
   19.3460   26.2387   37.3488 H   0  0  0  0  0  0  0  0  0  0  0  0
  1  2  1  0
  2  3  2  0
  2  4  1  0
  4  5  2  0
  5  6  1  0
  6  7  2  0
  7  8  1  0
  8  9  2  0
  9 10  1  0
 10 11  2  0
 11 12  1  0
 12 13  2  0
 13 14  1  0
  1 15  1  0
 15 16  2  0
 16 17  1  0
 17 18  2  0
 18 19  1  0
 19 20  1  0
 20 21  1  0
 21 22  1  0
 22 23  1  0
 23 24  2  0
 24 25  1  0
 25 26  2  0
 26 27  1  0
 27 28  2  0
 27 29  1  0
 13  4  1  0
 24 15  1  0
 12  7  1  0
 21 18  1  0
 29 23  1  0
  1 30  1  0
  8 31  1  0
  9 32  1  0
 10 33  1  0
 11 34  1  0
 14 35  1  0
 14 36  1  0
 17 37  1  0
 19 38  1  0
 19 39  1  0
 21 40  1  0
 22 41  1  0
 22 42  1  0
 29 43  1  0
 29 44  1  0
M  END
$$$$
