confid_0
     RDKit          3D

 37 40  0  0  0  0  0  0  0  0999 V2000
   25.3300   26.2600   34.7600 N   0  0  0  0  0  0  0  0  0  0  0  0
   26.1200   25.9200   33.6900 C   0  0  0  0  0  0  0  0  0  0  0  0
   25.6300   25.1100   32.9400 O   0  0  0  0  0  0  0  0  0  0  0  0
   27.5200   26.3800   33.4600 C   0  0  0  0  0  0  0  0  0  0  0  0
   28.1600   26.6300   34.6100 N   0  0  0  0  0  0  0  0  0  0  0  0
   29.4800   26.8500   34.5700 N   0  0  0  0  0  0  0  0  0  0  0  0
   30.1900   26.7800   33.4400 C   0  0  0  0  0  0  0  0  0  0  0  0
   31.5600   27.0500   33.5000 C   0  0  0  0  0  0  0  0  0  0  0  0
   32.2700   27.2400   32.3100 C   0  0  0  0  0  0  0  0  0  0  0  0
   31.6100   27.2500   31.0800 C   0  0  0  0  0  0  0  0  0  0  0  0
   30.2700   26.8700   31.0600 C   0  0  0  0  0  0  0  0  0  0  0  0
   29.5100   26.6900   32.2300 C   0  0  0  0  0  0  0  0  0  0  0  0
   28.1400   26.4100   32.2000 C   0  0  0  0  0  0  0  0  0  0  0  0
   27.4300   26.1300   31.0500 N   0  0  0  0  0  0  0  0  0  0  0  0
   23.9204   25.9949   34.8346 C   0  0  0  0  0  0  0  0  0  0  0  0
   23.3375   25.5526   35.9779 N   0  0  0  0  0  0  0  0  0  0  0  0
   22.0293   25.5328   35.6645 C   0  0  0  0  0  0  0  0  0  0  0  0
   20.8767   25.8492   36.5730 C   0  0  0  0  0  0  0  0  0  0  0  0
   19.9813   26.6109   35.6969 N   0  0  0  0  0  0  0  0  0  0  0  0
   20.5949   26.7513   34.4203 C   0  0  0  0  0  0  0  0  0  0  0  0
   20.1377   27.4565   33.4829 O   0  0  0  0  0  0  0  0  0  0  0  0
   21.8429   26.0257   34.4183 C   0  0  0  0  0  0  0  0  0  0  0  0
   23.0263   26.3495   33.8699 N   0  0  0  0  0  0  0  0  0  0  0  0
   23.2284   27.3187   32.7936 C   0  0  0  0  0  0  0  0  0  0  0  0
   18.5193   27.4043   36.2081 Cl  0  0  0  0  0  0  0  0  0  0  0  0
   25.7897   26.6274   35.6226 H   0  0  0  0  0  0  0  0  0  0  0  0
   32.0668   27.1425   34.4530 H   0  0  0  0  0  0  0  0  0  0  0  0
   33.3288   27.4609   32.3494 H   0  0  0  0  0  0  0  0  0  0  0  0
   32.1515   27.4335   30.1609 H   0  0  0  0  0  0  0  0  0  0  0  0
   29.8039   26.7907   30.0880 H   0  0  0  0  0  0  0  0  0  0  0  0
   26.8580   25.2645   30.9532 H   0  0  0  0  0  0  0  0  0  0  0  0
   27.5769   26.6941   30.1847 H   0  0  0  0  0  0  0  0  0  0  0  0
   20.3816   24.9198   36.9242 H   0  0  0  0  0  0  0  0  0  0  0  0
   21.2070   26.4811   37.4246 H   0  0  0  0  0  0  0  0  0  0  0  0
   24.2115   27.1764   32.3053 H   0  0  0  0  0  0  0  0  0  0  0  0
   23.1731   28.3486   33.2044 H   0  0  0  0  0  0  0  0  0  0  0  0
   22.4438   27.1923   32.0182 H   0  0  0  0  0  0  0  0  0  0  0  0
  1  2  1  0
  2  3  2  0
  2  4  1  0
  4  5  2  0
  5  6  1  0
  6  7  2  0
  7  8  1  0
  8  9  2  0
  9 10  1  0
 10 11  2  0
 11 12  1  0
 12 13  2  0
 13 14  1  0
  1 15  1  0
 15 16  2  0
 16 17  1  0
 17 18  1  0
 18 19  1  0
 19 20  1  0
 20 21  2  0
 20 22  1  0
 22 23  1  0
 23 24  1  0
 19 25  1  0
 13  4  1  0
 23 15  1  0
 12  7  1  0
 22 17  2  0
  1 26  1  0
  8 27  1  0
  9 28  1  0
 10 29  1  0
 11 30  1  0
 14 31  1  0
 14 32  1  0
 18 33  1  0
 18 34  1  0
 24 35  1  0
 24 36  1  0
 24 37  1  0
M  END
$$$$
confid_1
     RDKit          3D

 37 40  0  0  0  0  0  0  0  0999 V2000
   25.3300   26.2600   34.7600 N   0  0  0  0  0  0  0  0  0  0  0  0
   26.1200   25.9200   33.6900 C   0  0  0  0  0  0  0  0  0  0  0  0
   25.6300   25.1100   32.9400 O   0  0  0  0  0  0  0  0  0  0  0  0
   27.5200   26.3800   33.4600 C   0  0  0  0  0  0  0  0  0  0  0  0
   28.1600   26.6300   34.6100 N   0  0  0  0  0  0  0  0  0  0  0  0
   29.4800   26.8500   34.5700 N   0  0  0  0  0  0  0  0  0  0  0  0
   30.1900   26.7800   33.4400 C   0  0  0  0  0  0  0  0  0  0  0  0
   31.5600   27.0500   33.5000 C   0  0  0  0  0  0  0  0  0  0  0  0
   32.2700   27.2400   32.3100 C   0  0  0  0  0  0  0  0  0  0  0  0
   31.6100   27.2500   31.0800 C   0  0  0  0  0  0  0  0  0  0  0  0
   30.2700   26.8700   31.0600 C   0  0  0  0  0  0  0  0  0  0  0  0
   29.5100   26.6900   32.2300 C   0  0  0  0  0  0  0  0  0  0  0  0
   28.1400   26.4100   32.2000 C   0  0  0  0  0  0  0  0  0  0  0  0
   27.4300   26.1300   31.0500 N   0  0  0  0  0  0  0  0  0  0  0  0
   24.1241   25.5784   35.1622 C   0  0  0  0  0  0  0  0  0  0  0  0
   23.7953   24.3324   34.7270 N   0  0  0  0  0  0  0  0  0  0  0  0
   22.6780   24.0476   35.4220 C   0  0  0  0  0  0  0  0  0  0  0  0
   22.2645   22.7107   35.9659 C   0  0  0  0  0  0  0  0  0  0  0  0
   21.7079   23.0593   37.2773 N   0  0  0  0  0  0  0  0  0  0  0  0
   21.8385   24.4629   37.4758 C   0  0  0  0  0  0  0  0  0  0  0  0
   21.5704   25.0597   38.5515 O   0  0  0  0  0  0  0  0  0  0  0  0
   22.3983   25.0517   36.2838 C   0  0  0  0  0  0  0  0  0  0  0  0
   23.3089   26.0292   36.1530 N   0  0  0  0  0  0  0  0  0  0  0  0
   23.5605   27.1247   37.0854 C   0  0  0  0  0  0  0  0  0  0  0  0
   21.1881   21.9131   38.4791 Cl  0  0  0  0  0  0  0  0  0  0  0  0
   25.6386   27.0786   35.3290 H   0  0  0  0  0  0  0  0  0  0  0  0
   32.0668   27.1429   34.4530 H   0  0  0  0  0  0  0  0  0  0  0  0
   33.3284   27.4627   32.3495 H   0  0  0  0  0  0  0  0  0  0  0  0
   32.1496   27.4414   30.1613 H   0  0  0  0  0  0  0  0  0  0  0  0
   29.7983   26.8254   30.0886 H   0  0  0  0  0  0  0  0  0  0  0  0
   26.4124   26.3493   30.9737 H   0  0  0  0  0  0  0  0  0  0  0  0
   27.8914   25.7239   30.2072 H   0  0  0  0  0  0  0  0  0  0  0  0
   21.4884   22.2441   35.3240 H   0  0  0  0  0  0  0  0  0  0  0  0
   23.1451   22.0449   36.0889 H   0  0  0  0  0  0  0  0  0  0  0  0
   22.6336   27.3761   37.6425 H   0  0  0  0  0  0  0  0  0  0  0  0
   23.8785   28.0321   36.5311 H   0  0  0  0  0  0  0  0  0  0  0  0
   24.3521   26.8292   37.8054 H   0  0  0  0  0  0  0  0  0  0  0  0
  1  2  1  0
  2  3  2  0
  2  4  1  0
  4  5  2  0
  5  6  1  0
  6  7  2  0
  7  8  1  0
  8  9  2  0
  9 10  1  0
 10 11  2  0
 11 12  1  0
 12 13  2  0
 13 14  1  0
  1 15  1  0
 15 16  2  0
 16 17  1  0
 17 18  1  0
 18 19  1  0
 19 20  1  0
 20 21  2  0
 20 22  1  0
 22 23  1  0
 23 24  1  0
 19 25  1  0
 13  4  1  0
 23 15  1  0
 12  7  1  0
 22 17  2  0
  1 26  1  0
  8 27  1  0
  9 28  1  0
 10 29  1  0
 11 30  1  0
 14 31  1  0
 14 32  1  0
 18 33  1  0
 18 34  1  0
 24 35  1  0
 24 36  1  0
 24 37  1  0
M  END
$$$$
confid_2
     RDKit          3D

 37 40  0  0  0  0  0  0  0  0999 V2000
   25.3300   26.2600   34.7600 N   0  0  0  0  0  0  0  0  0  0  0  0
   26.1200   25.9200   33.6900 C   0  0  0  0  0  0  0  0  0  0  0  0
   25.6300   25.1100   32.9400 O   0  0  0  0  0  0  0  0  0  0  0  0
   27.5200   26.3800   33.4600 C   0  0  0  0  0  0  0  0  0  0  0  0
   28.1600   26.6300   34.6100 N   0  0  0  0  0  0  0  0  0  0  0  0
   29.4800   26.8500   34.5700 N   0  0  0  0  0  0  0  0  0  0  0  0
   30.1900   26.7800   33.4400 C   0  0  0  0  0  0  0  0  0  0  0  0
   31.5600   27.0500   33.5000 C   0  0  0  0  0  0  0  0  0  0  0  0
   32.2700   27.2400   32.3100 C   0  0  0  0  0  0  0  0  0  0  0  0
   31.6100   27.2500   31.0800 C   0  0  0  0  0  0  0  0  0  0  0  0
   30.2700   26.8700   31.0600 C   0  0  0  0  0  0  0  0  0  0  0  0
   29.5100   26.6900   32.2300 C   0  0  0  0  0  0  0  0  0  0  0  0
   28.1400   26.4100   32.2000 C   0  0  0  0  0  0  0  0  0  0  0  0
   27.4300   26.1300   31.0500 N   0  0  0  0  0  0  0  0  0  0  0  0
   23.9147   26.0021   34.8621 C   0  0  0  0  0  0  0  0  0  0  0  0
   23.1437   25.6630   33.7940 N   0  0  0  0  0  0  0  0  0  0  0  0
   21.9006   25.6277   34.3098 C   0  0  0  0  0  0  0  0  0  0  0  0
   20.6260   26.0421   33.6332 C   0  0  0  0  0  0  0  0  0  0  0  0
   19.9004   26.7224   34.7111 N   0  0  0  0  0  0  0  0  0  0  0  0
   20.7131   26.7324   35.8799 C   0  0  0  0  0  0  0  0  0  0  0  0
   20.4305   27.3490   36.9406 O   0  0  0  0  0  0  0  0  0  0  0  0
   21.9262   25.9999   35.6099 C   0  0  0  0  0  0  0  0  0  0  0  0
   23.1891   26.2598   35.9830 N   0  0  0  0  0  0  0  0  0  0  0  0
   23.6208   26.9775   37.1794 C   0  0  0  0  0  0  0  0  0  0  0  0
   18.3962   27.5761   34.5195 Cl  0  0  0  0  0  0  0  0  0  0  0  0
   25.7797   26.7897   35.5383 H   0  0  0  0  0  0  0  0  0  0  0  0
   32.0667   27.1429   34.4530 H   0  0  0  0  0  0  0  0  0  0  0  0
   33.3284   27.4627   32.3495 H   0  0  0  0  0  0  0  0  0  0  0  0
   32.1496   27.4414   30.1613 H   0  0  0  0  0  0  0  0  0  0  0  0
   29.7983   26.8254   30.0886 H   0  0  0  0  0  0  0  0  0  0  0  0
   27.8914   25.7241   30.2071 H   0  0  0  0  0  0  0  0  0  0  0  0
   26.4123   26.3491   30.9739 H   0  0  0  0  0  0  0  0  0  0  0  0
   20.0586   25.1563   33.2792 H   0  0  0  0  0  0  0  0  0  0  0  0
   20.8319   26.7516   32.8037 H   0  0  0  0  0  0  0  0  0  0  0  0
   23.7308   28.0579   36.9486 H   0  0  0  0  0  0  0  0  0  0  0  0
   22.8766   26.8504   37.9934 H   0  0  0  0  0  0  0  0  0  0  0  0
   24.5890   26.5715   37.5393 H   0  0  0  0  0  0  0  0  0  0  0  0
  1  2  1  0
  2  3  2  0
  2  4  1  0
  4  5  2  0
  5  6  1  0
  6  7  2  0
  7  8  1  0
  8  9  2  0
  9 10  1  0
 10 11  2  0
 11 12  1  0
 12 13  2  0
 13 14  1  0
  1 15  1  0
 15 16  2  0
 16 17  1  0
 17 18  1  0
 18 19  1  0
 19 20  1  0
 20 21  2  0
 20 22  1  0
 22 23  1  0
 23 24  1  0
 19 25  1  0
 13  4  1  0
 23 15  1  0
 12  7  1  0
 22 17  2  0
  1 26  1  0
  8 27  1  0
  9 28  1  0
 10 29  1  0
 11 30  1  0
 14 31  1  0
 14 32  1  0
 18 33  1  0
 18 34  1  0
 24 35  1  0
 24 36  1  0
 24 37  1  0
M  END
$$$$
confid_3
     RDKit          3D

 37 40  0  0  0  0  0  0  0  0999 V2000
   25.3300   26.2600   34.7600 N   0  0  0  0  0  0  0  0  0  0  0  0
   26.1200   25.9200   33.6900 C   0  0  0  0  0  0  0  0  0  0  0  0
   25.6300   25.1100   32.9400 O   0  0  0  0  0  0  0  0  0  0  0  0
   27.5200   26.3800   33.4600 C   0  0  0  0  0  0  0  0  0  0  0  0
   28.1600   26.6300   34.6100 N   0  0  0  0  0  0  0  0  0  0  0  0
   29.4800   26.8500   34.5700 N   0  0  0  0  0  0  0  0  0  0  0  0
   30.1900   26.7800   33.4400 C   0  0  0  0  0  0  0  0  0  0  0  0
   31.5600   27.0500   33.5000 C   0  0  0  0  0  0  0  0  0  0  0  0
   32.2700   27.2400   32.3100 C   0  0  0  0  0  0  0  0  0  0  0  0
   31.6100   27.2500   31.0800 C   0  0  0  0  0  0  0  0  0  0  0  0
   30.2700   26.8700   31.0600 C   0  0  0  0  0  0  0  0  0  0  0  0
   29.5100   26.6900   32.2300 C   0  0  0  0  0  0  0  0  0  0  0  0
   28.1400   26.4100   32.2000 C   0  0  0  0  0  0  0  0  0  0  0  0
   27.4300   26.1300   31.0500 N   0  0  0  0  0  0  0  0  0  0  0  0
   24.1213   25.5755   35.1237 C   0  0  0  0  0  0  0  0  0  0  0  0
   22.9967   26.2500   35.4742 N   0  0  0  0  0  0  0  0  0  0  0  0
   22.1542   25.2668   35.8398 C   0  0  0  0  0  0  0  0  0  0  0  0
   21.1287   25.3148   36.9352 C   0  0  0  0  0  0  0  0  0  0  0  0
   21.2448   23.9834   37.5382 N   0  0  0  0  0  0  0  0  0  0  0  0
   22.2764   23.2640   36.8716 C   0  0  0  0  0  0  0  0  0  0  0  0
   22.7034   22.1345   37.2280 O   0  0  0  0  0  0  0  0  0  0  0  0
   22.7857   24.0712   35.7887 C   0  0  0  0  0  0  0  0  0  0  0  0
   24.0479   24.2361   35.3583 N   0  0  0  0  0  0  0  0  0  0  0  0
   25.1623   23.3261   35.6191 C   0  0  0  0  0  0  0  0  0  0  0  0
   20.4182   23.4625   38.9780 Cl  0  0  0  0  0  0  0  0  0  0  0  0
   25.5376   27.1592   35.2494 H   0  0  0  0  0  0  0  0  0  0  0  0
   32.0668   27.1425   34.4530 H   0  0  0  0  0  0  0  0  0  0  0  0
   33.3288   27.4609   32.3494 H   0  0  0  0  0  0  0  0  0  0  0  0
   32.1514   27.4336   30.1608 H   0  0  0  0  0  0  0  0  0  0  0  0
   29.8039   26.7906   30.0880 H   0  0  0  0  0  0  0  0  0  0  0  0
   26.8614   25.2622   30.9527 H   0  0  0  0  0  0  0  0  0  0  0  0
   27.5765   26.6944   30.1848 H   0  0  0  0  0  0  0  0  0  0  0  0
   20.1109   25.4673   36.5194 H   0  0  0  0  0  0  0  0  0  0  0  0
   21.3845   26.0965   37.6819 H   0  0  0  0  0  0  0  0  0  0  0  0
   25.5153   23.4591   36.6633 H   0  0  0  0  0  0  0  0  0  0  0  0
   24.8340   22.2752   35.4755 H   0  0  0  0  0  0  0  0  0  0  0  0
   26.0051   23.5166   34.9271 H   0  0  0  0  0  0  0  0  0  0  0  0
  1  2  1  0
  2  3  2  0
  2  4  1  0
  4  5  2  0
  5  6  1  0
  6  7  2  0
  7  8  1  0
  8  9  2  0
  9 10  1  0
 10 11  2  0
 11 12  1  0
 12 13  2  0
 13 14  1  0
  1 15  1  0
 15 16  2  0
 16 17  1  0
 17 18  1  0
 18 19  1  0
 19 20  1  0
 20 21  2  0
 20 22  1  0
 22 23  1  0
 23 24  1  0
 19 25  1  0
 13  4  1  0
 23 15  1  0
 12  7  1  0
 22 17  2  0
  1 26  1  0
  8 27  1  0
  9 28  1  0
 10 29  1  0
 11 30  1  0
 14 31  1  0
 14 32  1  0
 18 33  1  0
 18 34  1  0
 24 35  1  0
 24 36  1  0
 24 37  1  0
M  END
$$$$
confid_4
     RDKit          3D

 37 40  0  0  0  0  0  0  0  0999 V2000
   25.3300   26.2600   34.7600 N   0  0  0  0  0  0  0  0  0  0  0  0
   26.1200   25.9200   33.6900 C   0  0  0  0  0  0  0  0  0  0  0  0
   25.6300   25.1100   32.9400 O   0  0  0  0  0  0  0  0  0  0  0  0
   27.5200   26.3800   33.4600 C   0  0  0  0  0  0  0  0  0  0  0  0
   28.1600   26.6300   34.6100 N   0  0  0  0  0  0  0  0  0  0  0  0
   29.4800   26.8500   34.5700 N   0  0  0  0  0  0  0  0  0  0  0  0
   30.1900   26.7800   33.4400 C   0  0  0  0  0  0  0  0  0  0  0  0
   31.5600   27.0500   33.5000 C   0  0  0  0  0  0  0  0  0  0  0  0
   32.2700   27.2400   32.3100 C   0  0  0  0  0  0  0  0  0  0  0  0
   31.6100   27.2500   31.0800 C   0  0  0  0  0  0  0  0  0  0  0  0
   30.2700   26.8700   31.0600 C   0  0  0  0  0  0  0  0  0  0  0  0
   29.5100   26.6900   32.2300 C   0  0  0  0  0  0  0  0  0  0  0  0
   28.1400   26.4100   32.2000 C   0  0  0  0  0  0  0  0  0  0  0  0
   27.4300   26.1300   31.0500 N   0  0  0  0  0  0  0  0  0  0  0  0
   24.1664   25.5311   35.1801 C   0  0  0  0  0  0  0  0  0  0  0  0
   22.9434   26.1148   35.2663 N   0  0  0  0  0  0  0  0  0  0  0  0
   22.1515   25.0982   35.6598 C   0  0  0  0  0  0  0  0  0  0  0  0
   20.7329   24.8339   35.2451 C   0  0  0  0  0  0  0  0  0  0  0  0
   20.7104   23.3737   35.1022 N   0  0  0  0  0  0  0  0  0  0  0  0
   22.0136   22.8635   35.3647 C   0  0  0  0  0  0  0  0  0  0  0  0
   22.3595   21.6644   35.1989 O   0  0  0  0  0  0  0  0  0  0  0  0
   22.8688   23.9554   35.7552 C   0  0  0  0  0  0  0  0  0  0  0  0
   24.1496   24.1962   35.4404 N   0  0  0  0  0  0  0  0  0  0  0  0
   25.2033   23.2065   35.2346 C   0  0  0  0  0  0  0  0  0  0  0  0
   19.3715   22.4513   34.4818 Cl  0  0  0  0  0  0  0  0  0  0  0  0
   25.5057   27.1824   35.2174 H   0  0  0  0  0  0  0  0  0  0  0  0
   32.0668   27.1429   34.4530 H   0  0  0  0  0  0  0  0  0  0  0  0
   33.3284   27.4627   32.3495 H   0  0  0  0  0  0  0  0  0  0  0  0
   32.1496   27.4414   30.1613 H   0  0  0  0  0  0  0  0  0  0  0  0
   29.7983   26.8254   30.0886 H   0  0  0  0  0  0  0  0  0  0  0  0
   26.4123   26.3490   30.9738 H   0  0  0  0  0  0  0  0  0  0  0  0
   27.8914   25.7239   30.2072 H   0  0  0  0  0  0  0  0  0  0  0  0
   20.0218   25.1602   36.0325 H   0  0  0  0  0  0  0  0  0  0  0  0
   20.5105   25.3170   34.2700 H   0  0  0  0  0  0  0  0  0  0  0  0
   26.2000   23.6614   35.4134 H   0  0  0  0  0  0  0  0  0  0  0  0
   25.1506   22.8110   34.1990 H   0  0  0  0  0  0  0  0  0  0  0  0
   25.0752   22.3651   35.9479 H   0  0  0  0  0  0  0  0  0  0  0  0
  1  2  1  0
  2  3  2  0
  2  4  1  0
  4  5  2  0
  5  6  1  0
  6  7  2  0
  7  8  1  0
  8  9  2  0
  9 10  1  0
 10 11  2  0
 11 12  1  0
 12 13  2  0
 13 14  1  0
  1 15  1  0
 15 16  2  0
 16 17  1  0
 17 18  1  0
 18 19  1  0
 19 20  1  0
 20 21  2  0
 20 22  1  0
 22 23  1  0
 23 24  1  0
 19 25  1  0
 13  4  1  0
 23 15  1  0
 12  7  1  0
 22 17  2  0
  1 26  1  0
  8 27  1  0
  9 28  1  0
 10 29  1  0
 11 30  1  0
 14 31  1  0
 14 32  1  0
 18 33  1  0
 18 34  1  0
 24 35  1  0
 24 36  1  0
 24 37  1  0
M  END
$$$$
