confid_0
     RDKit          3D

 40 43  0  0  0  0  0  0  0  0999 V2000
   24.6900   26.1200   35.5300 N   0  0  0  0  0  0  0  0  0  0  0  0
   25.6600   25.6700   34.6600 C   0  0  0  0  0  0  0  0  0  0  0  0
   25.2400   25.0100   33.7200 O   0  0  0  0  0  0  0  0  0  0  0  0
   27.0300   26.2200   34.8800 C   0  0  0  0  0  0  0  0  0  0  0  0
   27.3500   26.7300   36.0700 N   0  0  0  0  0  0  0  0  0  0  0  0
   28.5700   27.1800   36.3300 N   0  0  0  0  0  0  0  0  0  0  0  0
   29.5300   27.1100   35.3900 C   0  0  0  0  0  0  0  0  0  0  0  0
   30.8300   27.5700   35.6500 C   0  0  0  0  0  0  0  0  0  0  0  0
   31.8500   27.5400   34.6900 C   0  0  0  0  0  0  0  0  0  0  0  0
   31.5100   27.1200   33.4000 C   0  0  0  0  0  0  0  0  0  0  0  0
   30.2200   26.6300   33.1100 C   0  0  0  0  0  0  0  0  0  0  0  0
   29.2400   26.6600   34.1000 C   0  0  0  0  0  0  0  0  0  0  0  0
   27.9300   26.2600   33.8100 C   0  0  0  0  0  0  0  0  0  0  0  0
   27.5200   25.7100   32.6100 N   0  0  0  0  0  0  0  0  0  0  0  0
   31.1527   28.0648   36.9603 N   0  0  0  0  0  0  0  0  0  0  0  0
   31.1077   29.5192   37.1642 C   0  0  0  0  0  0  0  0  0  0  0  0
   31.9286   29.9312   38.3879 C   0  0  0  0  0  0  0  0  0  0  0  0
   31.4564   29.1682   39.6263 C   0  0  0  0  0  0  0  0  0  0  0  0
   31.4770   27.6862   39.3866 C   0  0  0  0  0  0  0  0  0  0  0  0
   31.6098   26.8435   40.4471 N   0  0  0  0  0  0  0  0  0  0  0  0
   31.6088   25.4934   40.2986 C   0  0  0  0  0  0  0  0  0  0  0  0
   31.4649   24.9313   39.0301 C   0  0  0  0  0  0  0  0  0  0  0  0
   31.4709   23.5845   38.8721 F   0  0  0  0  0  0  0  0  0  0  0  0
   31.3139   25.7672   37.9231 C   0  0  0  0  0  0  0  0  0  0  0  0
   31.3007   27.1654   38.0876 C   0  0  0  0  0  0  0  0  0  0  0  0
   31.7499   24.6965   41.3858 F   0  0  0  0  0  0  0  0  0  0  0  0
   23.6981   25.8079   35.4227 H   0  0  0  0  0  0  0  0  0  0  0  0
   24.8908   26.7904   36.3051 H   0  0  0  0  0  0  0  0  0  0  0  0
   32.8503   27.8865   34.9175 H   0  0  0  0  0  0  0  0  0  0  0  0
   32.2641   27.1259   32.6237 H   0  0  0  0  0  0  0  0  0  0  0  0
   30.0101   26.3032   32.1004 H   0  0  0  0  0  0  0  0  0  0  0  0
   28.1316   25.0435   32.0893 H   0  0  0  0  0  0  0  0  0  0  0  0
   26.6941   26.1028   32.1054 H   0  0  0  0  0  0  0  0  0  0  0  0
   30.0507   29.8360   37.3001 H   0  0  0  0  0  0  0  0  0  0  0  0
   31.5140   30.0432   36.2713 H   0  0  0  0  0  0  0  0  0  0  0  0
   33.0041   29.7154   38.2028 H   0  0  0  0  0  0  0  0  0  0  0  0
   31.8173   31.0234   38.5598 H   0  0  0  0  0  0  0  0  0  0  0  0
   30.4209   29.4775   39.8859 H   0  0  0  0  0  0  0  0  0  0  0  0
   32.1200   29.4198   40.4817 H   0  0  0  0  0  0  0  0  0  0  0  0
   31.2100   25.3183   36.9444 H   0  0  0  0  0  0  0  0  0  0  0  0
  1  2  1  0
  2  3  2  0
  2  4  1  0
  4  5  2  0
  5  6  1  0
  6  7  2  0
  7  8  1  0
  8  9  2  0
  9 10  1  0
 10 11  2  0
 11 12  1  0
 12 13  2  0
 13 14  1  0
  8 15  1  0
 15 16  1  0
 16 17  1  0
 17 18  1  0
 18 19  1  0
 19 20  2  0
 20 21  1  0
 21 22  2  0
 22 23  1  0
 22 24  1  0
 24 25  2  0
 21 26  1  0
 13  4  1  0
 25 15  1  0
 12  7  1  0
 25 19  1  0
  1 27  1  0
  1 28  1  0
  9 29  1  0
 10 30  1  0
 11 31  1  0
 14 32  1  0
 14 33  1  0
 16 34  1  0
 16 35  1  0
 17 36  1  0
 17 37  1  0
 18 38  1  0
 18 39  1  0
 24 40  1  0
M  END
$$$$
confid_1
     RDKit          3D

 40 43  0  0  0  0  0  0  0  0999 V2000
   24.6900   26.1200   35.5300 N   0  0  0  0  0  0  0  0  0  0  0  0
   25.6600   25.6700   34.6600 C   0  0  0  0  0  0  0  0  0  0  0  0
   25.2400   25.0100   33.7200 O   0  0  0  0  0  0  0  0  0  0  0  0
   27.0300   26.2200   34.8800 C   0  0  0  0  0  0  0  0  0  0  0  0
   27.3500   26.7300   36.0700 N   0  0  0  0  0  0  0  0  0  0  0  0
   28.5700   27.1800   36.3300 N   0  0  0  0  0  0  0  0  0  0  0  0
   29.5300   27.1100   35.3900 C   0  0  0  0  0  0  0  0  0  0  0  0
   30.8300   27.5700   35.6500 C   0  0  0  0  0  0  0  0  0  0  0  0
   31.8500   27.5400   34.6900 C   0  0  0  0  0  0  0  0  0  0  0  0
   31.5100   27.1200   33.4000 C   0  0  0  0  0  0  0  0  0  0  0  0
   30.2200   26.6300   33.1100 C   0  0  0  0  0  0  0  0  0  0  0  0
   29.2400   26.6600   34.1000 C   0  0  0  0  0  0  0  0  0  0  0  0
   27.9300   26.2600   33.8100 C   0  0  0  0  0  0  0  0  0  0  0  0
   27.5200   25.7100   32.6100 N   0  0  0  0  0  0  0  0  0  0  0  0
   31.1561   28.0598   36.9625 N   0  0  0  0  0  0  0  0  0  0  0  0
   31.2384   27.0989   38.0702 C   0  0  0  0  0  0  0  0  0  0  0  0
   32.3294   27.5153   39.0574 C   0  0  0  0  0  0  0  0  0  0  0  0
   32.0585   28.9255   39.5873 C   0  0  0  0  0  0  0  0  0  0  0  0
   31.8292   29.9049   38.4696 C   0  0  0  0  0  0  0  0  0  0  0  0
   32.0134   31.2325   38.7070 N   0  0  0  0  0  0  0  0  0  0  0  0
   31.7745   32.1746   37.7582 C   0  0  0  0  0  0  0  0  0  0  0  0
   31.3101   31.7945   36.4989 C   0  0  0  0  0  0  0  0  0  0  0  0
   31.0620   32.7295   35.5486 F   0  0  0  0  0  0  0  0  0  0  0  0
   31.0967   30.4428   36.2264 C   0  0  0  0  0  0  0  0  0  0  0  0
   31.3542   29.4724   37.2128 C   0  0  0  0  0  0  0  0  0  0  0  0
   31.9800   33.4837   38.0428 F   0  0  0  0  0  0  0  0  0  0  0  0
   23.6981   25.8077   35.4228 H   0  0  0  0  0  0  0  0  0  0  0  0
   24.8908   26.7905   36.3050 H   0  0  0  0  0  0  0  0  0  0  0  0
   32.8508   27.8850   34.9177 H   0  0  0  0  0  0  0  0  0  0  0  0
   32.2655   27.1207   32.6251 H   0  0  0  0  0  0  0  0  0  0  0  0
   30.0114   26.2785   32.1078 H   0  0  0  0  0  0  0  0  0  0  0  0
   27.3415   24.6831   32.5416 H   0  0  0  0  0  0  0  0  0  0  0  0
   27.6978   26.2229   31.7183 H   0  0  0  0  0  0  0  0  0  0  0  0
   31.4759   26.0830   37.6841 H   0  0  0  0  0  0  0  0  0  0  0  0
   30.2581   27.0522   38.5920 H   0  0  0  0  0  0  0  0  0  0  0  0
   33.3179   27.4911   38.5479 H   0  0  0  0  0  0  0  0  0  0  0  0
   32.3573   26.7986   39.9063 H   0  0  0  0  0  0  0  0  0  0  0  0
   32.9249   29.2542   40.2009 H   0  0  0  0  0  0  0  0  0  0  0  0
   31.1584   28.9106   40.2392 H   0  0  0  0  0  0  0  0  0  0  0  0
   30.7252   30.1625   35.2498 H   0  0  0  0  0  0  0  0  0  0  0  0
  1  2  1  0
  2  3  2  0
  2  4  1  0
  4  5  2  0
  5  6  1  0
  6  7  2  0
  7  8  1  0
  8  9  2  0
  9 10  1  0
 10 11  2  0
 11 12  1  0
 12 13  2  0
 13 14  1  0
  8 15  1  0
 15 16  1  0
 16 17  1  0
 17 18  1  0
 18 19  1  0
 19 20  2  0
 20 21  1  0
 21 22  2  0
 22 23  1  0
 22 24  1  0
 24 25  2  0
 21 26  1  0
 13  4  1  0
 25 15  1  0
 12  7  1  0
 25 19  1  0
  1 27  1  0
  1 28  1  0
  9 29  1  0
 10 30  1  0
 11 31  1  0
 14 32  1  0
 14 33  1  0
 16 34  1  0
 16 35  1  0
 17 36  1  0
 17 37  1  0
 18 38  1  0
 18 39  1  0
 24 40  1  0
M  END
$$$$
confid_2
     RDKit          3D

 40 43  0  0  0  0  0  0  0  0999 V2000
   24.6900   26.1200   35.5300 N   0  0  0  0  0  0  0  0  0  0  0  0
   25.6600   25.6700   34.6600 C   0  0  0  0  0  0  0  0  0  0  0  0
   25.2400   25.0100   33.7200 O   0  0  0  0  0  0  0  0  0  0  0  0
   27.0300   26.2200   34.8800 C   0  0  0  0  0  0  0  0  0  0  0  0
   27.3500   26.7300   36.0700 N   0  0  0  0  0  0  0  0  0  0  0  0
   28.5700   27.1800   36.3300 N   0  0  0  0  0  0  0  0  0  0  0  0
   29.5300   27.1100   35.3900 C   0  0  0  0  0  0  0  0  0  0  0  0
   30.8300   27.5700   35.6500 C   0  0  0  0  0  0  0  0  0  0  0  0
   31.8500   27.5400   34.6900 C   0  0  0  0  0  0  0  0  0  0  0  0
   31.5100   27.1200   33.4000 C   0  0  0  0  0  0  0  0  0  0  0  0
   30.2200   26.6300   33.1100 C   0  0  0  0  0  0  0  0  0  0  0  0
   29.2400   26.6600   34.1000 C   0  0  0  0  0  0  0  0  0  0  0  0
   27.9300   26.2600   33.8100 C   0  0  0  0  0  0  0  0  0  0  0  0
   27.5200   25.7100   32.6100 N   0  0  0  0  0  0  0  0  0  0  0  0
   31.1474   28.0674   36.9622 N   0  0  0  0  0  0  0  0  0  0  0  0
   32.0737   27.2924   37.7965 C   0  0  0  0  0  0  0  0  0  0  0  0
   31.7011   27.4291   39.2732 C   0  0  0  0  0  0  0  0  0  0  0  0
   31.7088   28.9014   39.6913 C   0  0  0  0  0  0  0  0  0  0  0  0
   30.8872   29.7498   38.7604 C   0  0  0  0  0  0  0  0  0  0  0  0
   30.4280   30.9540   39.1979 N   0  0  0  0  0  0  0  0  0  0  0  0
   29.7282   31.7949   38.3929 C   0  0  0  0  0  0  0  0  0  0  0  0
   29.4758   31.4424   37.0672 C   0  0  0  0  0  0  0  0  0  0  0  0
   28.7852   32.2800   36.2545 F   0  0  0  0  0  0  0  0  0  0  0  0
   29.9452   30.2217   36.5813 C   0  0  0  0  0  0  0  0  0  0  0  0
   30.6601   29.3509   37.4255 C   0  0  0  0  0  0  0  0  0  0  0  0
   29.2865   32.9803   38.8794 F   0  0  0  0  0  0  0  0  0  0  0  0
   23.6982   25.8077   35.4228 H   0  0  0  0  0  0  0  0  0  0  0  0
   24.8908   26.7907   36.3049 H   0  0  0  0  0  0  0  0  0  0  0  0
   32.8498   27.8894   34.9150 H   0  0  0  0  0  0  0  0  0  0  0  0
   32.2652   27.1216   32.6248 H   0  0  0  0  0  0  0  0  0  0  0  0
   30.0113   26.2787   32.1078 H   0  0  0  0  0  0  0  0  0  0  0  0
   27.6977   26.2230   31.7183 H   0  0  0  0  0  0  0  0  0  0  0  0
   27.3415   24.6831   32.5416 H   0  0  0  0  0  0  0  0  0  0  0  0
   32.0349   26.2158   37.5187 H   0  0  0  0  0  0  0  0  0  0  0  0
   33.1108   27.6572   37.6322 H   0  0  0  0  0  0  0  0  0  0  0  0
   32.4274   26.8627   39.8950 H   0  0  0  0  0  0  0  0  0  0  0  0
   30.6890   26.9989   39.4401 H   0  0  0  0  0  0  0  0  0  0  0  0
   32.7532   29.2813   39.6917 H   0  0  0  0  0  0  0  0  0  0  0  0
   31.3094   28.9861   40.7250 H   0  0  0  0  0  0  0  0  0  0  0  0
   29.7522   29.9661   35.5481 H   0  0  0  0  0  0  0  0  0  0  0  0
  1  2  1  0
  2  3  2  0
  2  4  1  0
  4  5  2  0
  5  6  1  0
  6  7  2  0
  7  8  1  0
  8  9  2  0
  9 10  1  0
 10 11  2  0
 11 12  1  0
 12 13  2  0
 13 14  1  0
  8 15  1  0
 15 16  1  0
 16 17  1  0
 17 18  1  0
 18 19  1  0
 19 20  2  0
 20 21  1  0
 21 22  2  0
 22 23  1  0
 22 24  1  0
 24 25  2  0
 21 26  1  0
 13  4  1  0
 25 15  1  0
 12  7  1  0
 25 19  1  0
  1 27  1  0
  1 28  1  0
  9 29  1  0
 10 30  1  0
 11 31  1  0
 14 32  1  0
 14 33  1  0
 16 34  1  0
 16 35  1  0
 17 36  1  0
 17 37  1  0
 18 38  1  0
 18 39  1  0
 24 40  1  0
M  END
$$$$
confid_3
     RDKit          3D

 40 43  0  0  0  0  0  0  0  0999 V2000
   24.6900   26.1200   35.5300 N   0  0  0  0  0  0  0  0  0  0  0  0
   25.6600   25.6700   34.6600 C   0  0  0  0  0  0  0  0  0  0  0  0
   25.2400   25.0100   33.7200 O   0  0  0  0  0  0  0  0  0  0  0  0
   27.0300   26.2200   34.8800 C   0  0  0  0  0  0  0  0  0  0  0  0
   27.3500   26.7300   36.0700 N   0  0  0  0  0  0  0  0  0  0  0  0
   28.5700   27.1800   36.3300 N   0  0  0  0  0  0  0  0  0  0  0  0
   29.5300   27.1100   35.3900 C   0  0  0  0  0  0  0  0  0  0  0  0
   30.8300   27.5700   35.6500 C   0  0  0  0  0  0  0  0  0  0  0  0
   31.8500   27.5400   34.6900 C   0  0  0  0  0  0  0  0  0  0  0  0
   31.5100   27.1200   33.4000 C   0  0  0  0  0  0  0  0  0  0  0  0
   30.2200   26.6300   33.1100 C   0  0  0  0  0  0  0  0  0  0  0  0
   29.2400   26.6600   34.1000 C   0  0  0  0  0  0  0  0  0  0  0  0
   27.9300   26.2600   33.8100 C   0  0  0  0  0  0  0  0  0  0  0  0
   27.5200   25.7100   32.6100 N   0  0  0  0  0  0  0  0  0  0  0  0
   31.1485   28.0672   36.9622 N   0  0  0  0  0  0  0  0  0  0  0  0
   31.4824   29.4893   37.1063 C   0  0  0  0  0  0  0  0  0  0  0  0
   30.9885   30.0167   38.4538 C   0  0  0  0  0  0  0  0  0  0  0  0
   31.5992   29.2071   39.6002 C   0  0  0  0  0  0  0  0  0  0  0  0
   31.4134   27.7280   39.4007 C   0  0  0  0  0  0  0  0  0  0  0  0
   31.4964   26.9020   40.4793 N   0  0  0  0  0  0  0  0  0  0  0  0
   31.3964   25.5524   40.3637 C   0  0  0  0  0  0  0  0  0  0  0  0
   31.2220   24.9710   39.1080 C   0  0  0  0  0  0  0  0  0  0  0  0
   31.1310   23.6237   38.9828 F   0  0  0  0  0  0  0  0  0  0  0  0
   31.1480   25.7873   37.9790 C   0  0  0  0  0  0  0  0  0  0  0  0
   31.2396   27.1861   38.1089 C   0  0  0  0  0  0  0  0  0  0  0  0
   31.4783   24.7742   41.4703 F   0  0  0  0  0  0  0  0  0  0  0  0
   23.6981   25.8078   35.4227 H   0  0  0  0  0  0  0  0  0  0  0  0
   24.8908   26.7903   36.3052 H   0  0  0  0  0  0  0  0  0  0  0  0
   32.8515   27.8833   34.9168 H   0  0  0  0  0  0  0  0  0  0  0  0
   32.2657   27.1200   32.6252 H   0  0  0  0  0  0  0  0  0  0  0  0
   30.0115   26.2782   32.1079 H   0  0  0  0  0  0  0  0  0  0  0  0
   27.6978   26.2229   31.7183 H   0  0  0  0  0  0  0  0  0  0  0  0
   27.3415   24.6831   32.5417 H   0  0  0  0  0  0  0  0  0  0  0  0
   31.0042   30.0827   36.2958 H   0  0  0  0  0  0  0  0  0  0  0  0
   32.5838   29.6188   37.0291 H   0  0  0  0  0  0  0  0  0  0  0  0
   29.8793   29.9437   38.4948 H   0  0  0  0  0  0  0  0  0  0  0  0
   31.2715   31.0858   38.5623 H   0  0  0  0  0  0  0  0  0  0  0  0
   32.6872   29.4235   39.6680 H   0  0  0  0  0  0  0  0  0  0  0  0
   31.1246   29.5179   40.5559 H   0  0  0  0  0  0  0  0  0  0  0  0
   31.0257   25.3221   37.0101 H   0  0  0  0  0  0  0  0  0  0  0  0
  1  2  1  0
  2  3  2  0
  2  4  1  0
  4  5  2  0
  5  6  1  0
  6  7  2  0
  7  8  1  0
  8  9  2  0
  9 10  1  0
 10 11  2  0
 11 12  1  0
 12 13  2  0
 13 14  1  0
  8 15  1  0
 15 16  1  0
 16 17  1  0
 17 18  1  0
 18 19  1  0
 19 20  2  0
 20 21  1  0
 21 22  2  0
 22 23  1  0
 22 24  1  0
 24 25  2  0
 21 26  1  0
 13  4  1  0
 25 15  1  0
 12  7  1  0
 25 19  1  0
  1 27  1  0
  1 28  1  0
  9 29  1  0
 10 30  1  0
 11 31  1  0
 14 32  1  0
 14 33  1  0
 16 34  1  0
 16 35  1  0
 17 36  1  0
 17 37  1  0
 18 38  1  0
 18 39  1  0
 24 40  1  0
M  END
$$$$
confid_4
     RDKit          3D

 40 43  0  0  0  0  0  0  0  0999 V2000
   24.6900   26.1200   35.5300 N   0  0  0  0  0  0  0  0  0  0  0  0
   25.6600   25.6700   34.6600 C   0  0  0  0  0  0  0  0  0  0  0  0
   25.2400   25.0100   33.7200 O   0  0  0  0  0  0  0  0  0  0  0  0
   27.0300   26.2200   34.8800 C   0  0  0  0  0  0  0  0  0  0  0  0
   27.3500   26.7300   36.0700 N   0  0  0  0  0  0  0  0  0  0  0  0
   28.5700   27.1800   36.3300 N   0  0  0  0  0  0  0  0  0  0  0  0
   29.5300   27.1100   35.3900 C   0  0  0  0  0  0  0  0  0  0  0  0
   30.8300   27.5700   35.6500 C   0  0  0  0  0  0  0  0  0  0  0  0
   31.8500   27.5400   34.6900 C   0  0  0  0  0  0  0  0  0  0  0  0
   31.5100   27.1200   33.4000 C   0  0  0  0  0  0  0  0  0  0  0  0
   30.2200   26.6300   33.1100 C   0  0  0  0  0  0  0  0  0  0  0  0
   29.2400   26.6600   34.1000 C   0  0  0  0  0  0  0  0  0  0  0  0
   27.9300   26.2600   33.8100 C   0  0  0  0  0  0  0  0  0  0  0  0
   27.5200   25.7100   32.6100 N   0  0  0  0  0  0  0  0  0  0  0  0
   31.1509   28.0688   36.9589 N   0  0  0  0  0  0  0  0  0  0  0  0
   31.7417   27.1263   37.9188 C   0  0  0  0  0  0  0  0  0  0  0  0
   32.4877   27.8671   39.0303 C   0  0  0  0  0  0  0  0  0  0  0  0
   31.5590   28.8687   39.7183 C   0  0  0  0  0  0  0  0  0  0  0  0
   30.9305   29.7971   38.7193 C   0  0  0  0  0  0  0  0  0  0  0  0
   30.5150   31.0277   39.1262 N   0  0  0  0  0  0  0  0  0  0  0  0
   29.9133   31.9015   38.2782 C   0  0  0  0  0  0  0  0  0  0  0  0
   29.7000   31.5462   36.9462 C   0  0  0  0  0  0  0  0  0  0  0  0
   29.1059   32.4152   36.0913 F   0  0  0  0  0  0  0  0  0  0  0  0
   30.1025   30.2869   36.4998 C   0  0  0  0  0  0  0  0  0  0  0  0
   30.7133   29.3821   37.3887 C   0  0  0  0  0  0  0  0  0  0  0  0
   29.5226   33.1179   38.7306 F   0  0  0  0  0  0  0  0  0  0  0  0
   24.8908   26.7907   36.3049 H   0  0  0  0  0  0  0  0  0  0  0  0
   23.6982   25.8077   35.4228 H   0  0  0  0  0  0  0  0  0  0  0  0
   32.8498   27.8881   34.9171 H   0  0  0  0  0  0  0  0  0  0  0  0
   32.2653   27.1212   32.6249 H   0  0  0  0  0  0  0  0  0  0  0  0
   30.0114   26.2786   32.1078 H   0  0  0  0  0  0  0  0  0  0  0  0
   27.3415   24.6831   32.5416 H   0  0  0  0  0  0  0  0  0  0  0  0
   27.6977   26.2230   31.7183 H   0  0  0  0  0  0  0  0  0  0  0  0
   32.4568   26.4504   37.4004 H   0  0  0  0  0  0  0  0  0  0  0  0
   30.9349   26.5026   38.3616 H   0  0  0  0  0  0  0  0  0  0  0  0
   32.8637   27.1354   39.7774 H   0  0  0  0  0  0  0  0  0  0  0  0
   33.3611   28.4029   38.5972 H   0  0  0  0  0  0  0  0  0  0  0  0
   32.1438   29.4548   40.4597 H   0  0  0  0  0  0  0  0  0  0  0  0
   30.7556   28.3245   40.2601 H   0  0  0  0  0  0  0  0  0  0  0  0
   29.9358   30.0261   35.4632 H   0  0  0  0  0  0  0  0  0  0  0  0
  1  2  1  0
  2  3  2  0
  2  4  1  0
  4  5  2  0
  5  6  1  0
  6  7  2  0
  7  8  1  0
  8  9  2  0
  9 10  1  0
 10 11  2  0
 11 12  1  0
 12 13  2  0
 13 14  1  0
  8 15  1  0
 15 16  1  0
 16 17  1  0
 17 18  1  0
 18 19  1  0
 19 20  2  0
 20 21  1  0
 21 22  2  0
 22 23  1  0
 22 24  1  0
 24 25  2  0
 21 26  1  0
 13  4  1  0
 25 15  1  0
 12  7  1  0
 25 19  1  0
  1 27  1  0
  1 28  1  0
  9 29  1  0
 10 30  1  0
 11 31  1  0
 14 32  1  0
 14 33  1  0
 16 34  1  0
 16 35  1  0
 17 36  1  0
 17 37  1  0
 18 38  1  0
 18 39  1  0
 24 40  1  0
M  END
$$$$
