confid_0
     RDKit          3D

 43 46  0  0  0  0  0  0  0  0999 V2000
   24.2000   26.2400   35.6900 N   0  0  0  0  0  0  0  0  0  0  0  0
   24.8500   26.2800   34.4800 C   0  0  0  0  0  0  0  0  0  0  0  0
   24.3100   25.7400   33.5400 O   0  0  0  0  0  0  0  0  0  0  0  0
   26.1800   26.9700   34.4700 C   0  0  0  0  0  0  0  0  0  0  0  0
   26.6500   27.6000   35.5500 N   0  0  0  0  0  0  0  0  0  0  0  0
   27.7900   28.2700   35.6200 N   0  0  0  0  0  0  0  0  0  0  0  0
   28.5400   28.3000   34.5100 C   0  0  0  0  0  0  0  0  0  0  0  0
   29.7700   28.9400   34.5600 C   0  0  0  0  0  0  0  0  0  0  0  0
   30.7000   28.8900   33.5000 C   0  0  0  0  0  0  0  0  0  0  0  0
   30.3700   28.1400   32.3700 C   0  0  0  0  0  0  0  0  0  0  0  0
   29.1200   27.5200   32.2800 C   0  0  0  0  0  0  0  0  0  0  0  0
   28.2100   27.6100   33.3300 C   0  0  0  0  0  0  0  0  0  0  0  0
   26.9700   26.9700   33.3100 C   0  0  0  0  0  0  0  0  0  0  0  0
   26.5300   26.2400   32.2200 N   0  0  0  0  0  0  0  0  0  0  0  0
   30.1420   29.6884   35.7337 N   0  0  0  0  0  0  0  0  0  0  0  0
   29.3329   30.8328   36.1707 C   0  0  0  0  0  0  0  0  0  0  0  0
   30.2303   31.9699   36.6723 C   0  0  0  0  0  0  0  0  0  0  0  0
   31.2199   31.4794   37.7052 C   0  0  0  0  0  0  0  0  0  0  0  0
   31.6944   32.3496   38.7040 C   0  0  0  0  0  0  0  0  0  0  0  0
   31.2271   33.6238   38.7726 F   0  0  0  0  0  0  0  0  0  0  0  0
   32.6585   31.9118   39.6278 C   0  0  0  0  0  0  0  0  0  0  0  0
   33.1758   32.8482   40.6818 C   0  0  0  0  0  0  0  0  0  0  0  0
   33.1787   30.6141   39.5212 C   0  0  0  0  0  0  0  0  0  0  0  0
   32.7291   29.7525   38.5194 C   0  0  0  0  0  0  0  0  0  0  0  0
   31.7515   30.1768   37.6063 C   0  0  0  0  0  0  0  0  0  0  0  0
   31.2627   29.2797   36.5383 C   0  0  0  0  0  0  0  0  0  0  0  0
   31.8204   28.1665   36.3333 O   0  0  0  0  0  0  0  0  0  0  0  0
   23.2682   25.7735   35.7694 H   0  0  0  0  0  0  0  0  0  0  0  0
   24.5986   26.6542   36.5616 H   0  0  0  0  0  0  0  0  0  0  0  0
   31.6548   29.3967   33.5649 H   0  0  0  0  0  0  0  0  0  0  0  0
   31.0705   28.0666   31.5482 H   0  0  0  0  0  0  0  0  0  0  0  0
   28.8854   26.9769   31.3744 H   0  0  0  0  0  0  0  0  0  0  0  0
   25.6755   26.5398   31.6999 H   0  0  0  0  0  0  0  0  0  0  0  0
   27.1525   25.5359   31.7655 H   0  0  0  0  0  0  0  0  0  0  0  0
   28.7093   31.2107   35.3307 H   0  0  0  0  0  0  0  0  0  0  0  0
   28.6550   30.5105   36.9906 H   0  0  0  0  0  0  0  0  0  0  0  0
   29.5815   32.7665   37.0961 H   0  0  0  0  0  0  0  0  0  0  0  0
   30.7929   32.3988   35.8153 H   0  0  0  0  0  0  0  0  0  0  0  0
   32.3335   33.3970   41.1538 H   0  0  0  0  0  0  0  0  0  0  0  0
   33.7149   32.2969   41.4815 H   0  0  0  0  0  0  0  0  0  0  0  0
   33.8720   33.5782   40.2184 H   0  0  0  0  0  0  0  0  0  0  0  0
   33.9378   30.2682   40.2121 H   0  0  0  0  0  0  0  0  0  0  0  0
   33.1464   28.7551   38.4590 H   0  0  0  0  0  0  0  0  0  0  0  0
  1  2  1  0
  2  3  2  0
  2  4  1  0
  4  5  2  0
  5  6  1  0
  6  7  2  0
  7  8  1  0
  8  9  2  0
  9 10  1  0
 10 11  2  0
 11 12  1  0
 12 13  2  0
 13 14  1  0
  8 15  1  0
 15 16  1  0
 16 17  1  0
 17 18  1  0
 18 19  2  0
 19 20  1  0
 19 21  1  0
 21 22  1  0
 21 23  2  0
 23 24  1  0
 24 25  2  0
 25 26  1  0
 26 27  2  0
 13  4  1  0
 26 15  1  0
 12  7  1  0
 25 18  1  0
  1 28  1  0
  1 29  1  0
  9 30  1  0
 10 31  1  0
 11 32  1  0
 14 33  1  0
 14 34  1  0
 16 35  1  0
 16 36  1  0
 17 37  1  0
 17 38  1  0
 22 39  1  0
 22 40  1  0
 22 41  1  0
 23 42  1  0
 24 43  1  0
M  END
$$$$
confid_1
     RDKit          3D

 43 46  0  0  0  0  0  0  0  0999 V2000
   24.2000   26.2400   35.6900 N   0  0  0  0  0  0  0  0  0  0  0  0
   24.8500   26.2800   34.4800 C   0  0  0  0  0  0  0  0  0  0  0  0
   24.3100   25.7400   33.5400 O   0  0  0  0  0  0  0  0  0  0  0  0
   26.1800   26.9700   34.4700 C   0  0  0  0  0  0  0  0  0  0  0  0
   26.6500   27.6000   35.5500 N   0  0  0  0  0  0  0  0  0  0  0  0
   27.7900   28.2700   35.6200 N   0  0  0  0  0  0  0  0  0  0  0  0
   28.5400   28.3000   34.5100 C   0  0  0  0  0  0  0  0  0  0  0  0
   29.7700   28.9400   34.5600 C   0  0  0  0  0  0  0  0  0  0  0  0
   30.7000   28.8900   33.5000 C   0  0  0  0  0  0  0  0  0  0  0  0
   30.3700   28.1400   32.3700 C   0  0  0  0  0  0  0  0  0  0  0  0
   29.1200   27.5200   32.2800 C   0  0  0  0  0  0  0  0  0  0  0  0
   28.2100   27.6100   33.3300 C   0  0  0  0  0  0  0  0  0  0  0  0
   26.9700   26.9700   33.3100 C   0  0  0  0  0  0  0  0  0  0  0  0
   26.5300   26.2400   32.2200 N   0  0  0  0  0  0  0  0  0  0  0  0
   30.1477   29.6681   35.7410 N   0  0  0  0  0  0  0  0  0  0  0  0
   31.0703   29.0487   36.6984 C   0  0  0  0  0  0  0  0  0  0  0  0
   31.9191   30.1106   37.4071 C   0  0  0  0  0  0  0  0  0  0  0  0
   31.0600   31.2100   37.9889 C   0  0  0  0  0  0  0  0  0  0  0  0
   31.4775   31.9069   39.1378 C   0  0  0  0  0  0  0  0  0  0  0  0
   32.6332   31.5580   39.7617 F   0  0  0  0  0  0  0  0  0  0  0  0
   30.7102   32.9717   39.6402 C   0  0  0  0  0  0  0  0  0  0  0  0
   31.1668   33.7237   40.8572 C   0  0  0  0  0  0  0  0  0  0  0  0
   29.5466   33.3648   38.9635 C   0  0  0  0  0  0  0  0  0  0  0  0
   29.1385   32.6922   37.8105 C   0  0  0  0  0  0  0  0  0  0  0  0
   29.8894   31.6149   37.3158 C   0  0  0  0  0  0  0  0  0  0  0  0
   29.4729   30.8881   36.0990 C   0  0  0  0  0  0  0  0  0  0  0  0
   28.5456   31.3399   35.3719 O   0  0  0  0  0  0  0  0  0  0  0  0
   24.5988   26.6539   36.5617 H   0  0  0  0  0  0  0  0  0  0  0  0
   23.2681   25.7737   35.7694 H   0  0  0  0  0  0  0  0  0  0  0  0
   31.6577   29.3905   33.5700 H   0  0  0  0  0  0  0  0  0  0  0  0
   31.0736   28.0602   31.5514 H   0  0  0  0  0  0  0  0  0  0  0  0
   28.8952   26.9544   31.3856 H   0  0  0  0  0  0  0  0  0  0  0  0
   26.6264   26.6231   31.2536 H   0  0  0  0  0  0  0  0  0  0  0  0
   26.3242   25.2204   32.3142 H   0  0  0  0  0  0  0  0  0  0  0  0
   31.7483   28.3361   36.1791 H   0  0  0  0  0  0  0  0  0  0  0  0
   30.4828   28.4793   37.4511 H   0  0  0  0  0  0  0  0  0  0  0  0
   32.6273   30.5603   36.6782 H   0  0  0  0  0  0  0  0  0  0  0  0
   32.5115   29.6103   38.2034 H   0  0  0  0  0  0  0  0  0  0  0  0
   31.4857   33.0129   41.6487 H   0  0  0  0  0  0  0  0  0  0  0  0
   30.3515   34.3540   41.2719 H   0  0  0  0  0  0  0  0  0  0  0  0
   32.0228   34.3775   40.5885 H   0  0  0  0  0  0  0  0  0  0  0  0
   28.9548   34.1963   39.3257 H   0  0  0  0  0  0  0  0  0  0  0  0
   28.2352   33.0138   37.3073 H   0  0  0  0  0  0  0  0  0  0  0  0
  1  2  1  0
  2  3  2  0
  2  4  1  0
  4  5  2  0
  5  6  1  0
  6  7  2  0
  7  8  1  0
  8  9  2  0
  9 10  1  0
 10 11  2  0
 11 12  1  0
 12 13  2  0
 13 14  1  0
  8 15  1  0
 15 16  1  0
 16 17  1  0
 17 18  1  0
 18 19  2  0
 19 20  1  0
 19 21  1  0
 21 22  1  0
 21 23  2  0
 23 24  1  0
 24 25  2  0
 25 26  1  0
 26 27  2  0
 13  4  1  0
 26 15  1  0
 12  7  1  0
 25 18  1  0
  1 28  1  0
  1 29  1  0
  9 30  1  0
 10 31  1  0
 11 32  1  0
 14 33  1  0
 14 34  1  0
 16 35  1  0
 16 36  1  0
 17 37  1  0
 17 38  1  0
 22 39  1  0
 22 40  1  0
 22 41  1  0
 23 42  1  0
 24 43  1  0
M  END
$$$$
confid_2
     RDKit          3D

 43 46  0  0  0  0  0  0  0  0999 V2000
   24.2000   26.2400   35.6900 N   0  0  0  0  0  0  0  0  0  0  0  0
   24.8500   26.2800   34.4800 C   0  0  0  0  0  0  0  0  0  0  0  0
   24.3100   25.7400   33.5400 O   0  0  0  0  0  0  0  0  0  0  0  0
   26.1800   26.9700   34.4700 C   0  0  0  0  0  0  0  0  0  0  0  0
   26.6500   27.6000   35.5500 N   0  0  0  0  0  0  0  0  0  0  0  0
   27.7900   28.2700   35.6200 N   0  0  0  0  0  0  0  0  0  0  0  0
   28.5400   28.3000   34.5100 C   0  0  0  0  0  0  0  0  0  0  0  0
   29.7700   28.9400   34.5600 C   0  0  0  0  0  0  0  0  0  0  0  0
   30.7000   28.8900   33.5000 C   0  0  0  0  0  0  0  0  0  0  0  0
   30.3700   28.1400   32.3700 C   0  0  0  0  0  0  0  0  0  0  0  0
   29.1200   27.5200   32.2800 C   0  0  0  0  0  0  0  0  0  0  0  0
   28.2100   27.6100   33.3300 C   0  0  0  0  0  0  0  0  0  0  0  0
   26.9700   26.9700   33.3100 C   0  0  0  0  0  0  0  0  0  0  0  0
   26.5300   26.2400   32.2200 N   0  0  0  0  0  0  0  0  0  0  0  0
   30.1548   29.6657   35.7415 N   0  0  0  0  0  0  0  0  0  0  0  0
   30.4172   28.9527   36.9971 C   0  0  0  0  0  0  0  0  0  0  0  0
   31.6124   29.5708   37.7314 C   0  0  0  0  0  0  0  0  0  0  0  0
   31.4539   31.0669   37.8858 C   0  0  0  0  0  0  0  0  0  0  0  0
   32.0391   31.7347   38.9774 C   0  0  0  0  0  0  0  0  0  0  0  0
   32.7090   31.0287   39.9259 F   0  0  0  0  0  0  0  0  0  0  0  0
   31.9438   33.1323   39.0889 C   0  0  0  0  0  0  0  0  0  0  0  0
   32.5833   33.8432   40.2468 C   0  0  0  0  0  0  0  0  0  0  0  0
   31.2980   33.8636   38.0817 C   0  0  0  0  0  0  0  0  0  0  0  0
   30.7344   33.2101   36.9846 C   0  0  0  0  0  0  0  0  0  0  0  0
   30.8087   31.8129   36.8777 C   0  0  0  0  0  0  0  0  0  0  0  0
   30.2185   31.1022   35.7244 C   0  0  0  0  0  0  0  0  0  0  0  0
   29.7781   31.7463   34.7326 O   0  0  0  0  0  0  0  0  0  0  0  0
   23.2681   25.7737   35.7694 H   0  0  0  0  0  0  0  0  0  0  0  0
   24.5989   26.6537   36.5617 H   0  0  0  0  0  0  0  0  0  0  0  0
   31.6593   29.3873   33.5710 H   0  0  0  0  0  0  0  0  0  0  0  0
   31.0739   28.0596   31.5517 H   0  0  0  0  0  0  0  0  0  0  0  0
   28.8953   26.9543   31.3856 H   0  0  0  0  0  0  0  0  0  0  0  0
   26.3242   25.2204   32.3142 H   0  0  0  0  0  0  0  0  0  0  0  0
   26.6264   26.6231   31.2536 H   0  0  0  0  0  0  0  0  0  0  0  0
   29.5168   29.0116   37.6465 H   0  0  0  0  0  0  0  0  0  0  0  0
   30.6326   27.8800   36.7962 H   0  0  0  0  0  0  0  0  0  0  0  0
   32.5413   29.3685   37.1558 H   0  0  0  0  0  0  0  0  0  0  0  0
   31.7048   29.0801   38.7243 H   0  0  0  0  0  0  0  0  0  0  0  0
   32.3434   33.3198   41.1965 H   0  0  0  0  0  0  0  0  0  0  0  0
   33.6846   33.8595   40.1083 H   0  0  0  0  0  0  0  0  0  0  0  0
   32.2176   34.8888   40.3307 H   0  0  0  0  0  0  0  0  0  0  0  0
   31.2335   34.9431   38.1421 H   0  0  0  0  0  0  0  0  0  0  0  0
   30.2405   33.7977   36.2208 H   0  0  0  0  0  0  0  0  0  0  0  0
  1  2  1  0
  2  3  2  0
  2  4  1  0
  4  5  2  0
  5  6  1  0
  6  7  2  0
  7  8  1  0
  8  9  2  0
  9 10  1  0
 10 11  2  0
 11 12  1  0
 12 13  2  0
 13 14  1  0
  8 15  1  0
 15 16  1  0
 16 17  1  0
 17 18  1  0
 18 19  2  0
 19 20  1  0
 19 21  1  0
 21 22  1  0
 21 23  2  0
 23 24  1  0
 24 25  2  0
 25 26  1  0
 26 27  2  0
 13  4  1  0
 26 15  1  0
 12  7  1  0
 25 18  1  0
  1 28  1  0
  1 29  1  0
  9 30  1  0
 10 31  1  0
 11 32  1  0
 14 33  1  0
 14 34  1  0
 16 35  1  0
 16 36  1  0
 17 37  1  0
 17 38  1  0
 22 39  1  0
 22 40  1  0
 22 41  1  0
 23 42  1  0
 24 43  1  0
M  END
$$$$
confid_3
     RDKit          3D

 43 46  0  0  0  0  0  0  0  0999 V2000
   24.2000   26.2400   35.6900 N   0  0  0  0  0  0  0  0  0  0  0  0
   24.8500   26.2800   34.4800 C   0  0  0  0  0  0  0  0  0  0  0  0
   24.3100   25.7400   33.5400 O   0  0  0  0  0  0  0  0  0  0  0  0
   26.1800   26.9700   34.4700 C   0  0  0  0  0  0  0  0  0  0  0  0
   26.6500   27.6000   35.5500 N   0  0  0  0  0  0  0  0  0  0  0  0
   27.7900   28.2700   35.6200 N   0  0  0  0  0  0  0  0  0  0  0  0
   28.5400   28.3000   34.5100 C   0  0  0  0  0  0  0  0  0  0  0  0
   29.7700   28.9400   34.5600 C   0  0  0  0  0  0  0  0  0  0  0  0
   30.7000   28.8900   33.5000 C   0  0  0  0  0  0  0  0  0  0  0  0
   30.3700   28.1400   32.3700 C   0  0  0  0  0  0  0  0  0  0  0  0
   29.1200   27.5200   32.2800 C   0  0  0  0  0  0  0  0  0  0  0  0
   28.2100   27.6100   33.3300 C   0  0  0  0  0  0  0  0  0  0  0  0
   26.9700   26.9700   33.3100 C   0  0  0  0  0  0  0  0  0  0  0  0
   26.5300   26.2400   32.2200 N   0  0  0  0  0  0  0  0  0  0  0  0
   30.1367   29.6759   35.7436 N   0  0  0  0  0  0  0  0  0  0  0  0
   31.3845   29.3535   36.4454 C   0  0  0  0  0  0  0  0  0  0  0  0
   31.2320   29.5770   37.9543 C   0  0  0  0  0  0  0  0  0  0  0  0
   30.6879   30.9540   38.2594 C   0  0  0  0  0  0  0  0  0  0  0  0
   31.0144   31.5950   39.4689 C   0  0  0  0  0  0  0  0  0  0  0  0
   31.8543   30.9919   40.3503 F   0  0  0  0  0  0  0  0  0  0  0  0
   30.4682   32.8531   39.7758 C   0  0  0  0  0  0  0  0  0  0  0  0
   30.7947   33.5313   41.0754 C   0  0  0  0  0  0  0  0  0  0  0  0
   29.5517   33.4416   38.8930 C   0  0  0  0  0  0  0  0  0  0  0  0
   29.2030   32.7997   37.7038 C   0  0  0  0  0  0  0  0  0  0  0  0
   29.7659   31.5560   37.3787 C   0  0  0  0  0  0  0  0  0  0  0  0
   29.4158   30.8639   36.1204 C   0  0  0  0  0  0  0  0  0  0  0  0
   28.4958   31.3111   35.3817 O   0  0  0  0  0  0  0  0  0  0  0  0
   24.5986   26.6543   36.5616 H   0  0  0  0  0  0  0  0  0  0  0  0
   23.2683   25.7734   35.7695 H   0  0  0  0  0  0  0  0  0  0  0  0
   31.6556   29.3949   33.5630 H   0  0  0  0  0  0  0  0  0  0  0  0
   31.0728   28.0617   31.5506 H   0  0  0  0  0  0  0  0  0  0  0  0
   28.8951   26.9549   31.3853 H   0  0  0  0  0  0  0  0  0  0  0  0
   26.6265   26.6230   31.2536 H   0  0  0  0  0  0  0  0  0  0  0  0
   26.3242   25.2204   32.3141 H   0  0  0  0  0  0  0  0  0  0  0  0
   32.2017   29.9981   36.0542 H   0  0  0  0  0  0  0  0  0  0  0  0
   31.6628   28.2907   36.2684 H   0  0  0  0  0  0  0  0  0  0  0  0
   32.2250   29.4323   38.4308 H   0  0  0  0  0  0  0  0  0  0  0  0
   30.5339   28.8186   38.3688 H   0  0  0  0  0  0  0  0  0  0  0  0
   30.6770   34.6331   40.9863 H   0  0  0  0  0  0  0  0  0  0  0  0
   31.8456   33.3267   41.3724 H   0  0  0  0  0  0  0  0  0  0  0  0
   30.1128   33.1581   41.8685 H   0  0  0  0  0  0  0  0  0  0  0  0
   29.1009   34.3980   39.1284 H   0  0  0  0  0  0  0  0  0  0  0  0
   28.4930   33.2767   37.0392 H   0  0  0  0  0  0  0  0  0  0  0  0
  1  2  1  0
  2  3  2  0
  2  4  1  0
  4  5  2  0
  5  6  1  0
  6  7  2  0
  7  8  1  0
  8  9  2  0
  9 10  1  0
 10 11  2  0
 11 12  1  0
 12 13  2  0
 13 14  1  0
  8 15  1  0
 15 16  1  0
 16 17  1  0
 17 18  1  0
 18 19  2  0
 19 20  1  0
 19 21  1  0
 21 22  1  0
 21 23  2  0
 23 24  1  0
 24 25  2  0
 25 26  1  0
 26 27  2  0
 13  4  1  0
 26 15  1  0
 12  7  1  0
 25 18  1  0
  1 28  1  0
  1 29  1  0
  9 30  1  0
 10 31  1  0
 11 32  1  0
 14 33  1  0
 14 34  1  0
 16 35  1  0
 16 36  1  0
 17 37  1  0
 17 38  1  0
 22 39  1  0
 22 40  1  0
 22 41  1  0
 23 42  1  0
 24 43  1  0
M  END
$$$$
confid_4
     RDKit          3D

 43 46  0  0  0  0  0  0  0  0999 V2000
   24.2000   26.2400   35.6900 N   0  0  0  0  0  0  0  0  0  0  0  0
   24.8500   26.2800   34.4800 C   0  0  0  0  0  0  0  0  0  0  0  0
   24.3100   25.7400   33.5400 O   0  0  0  0  0  0  0  0  0  0  0  0
   26.1800   26.9700   34.4700 C   0  0  0  0  0  0  0  0  0  0  0  0
   26.6500   27.6000   35.5500 N   0  0  0  0  0  0  0  0  0  0  0  0
   27.7900   28.2700   35.6200 N   0  0  0  0  0  0  0  0  0  0  0  0
   28.5400   28.3000   34.5100 C   0  0  0  0  0  0  0  0  0  0  0  0
   29.7700   28.9400   34.5600 C   0  0  0  0  0  0  0  0  0  0  0  0
   30.7000   28.8900   33.5000 C   0  0  0  0  0  0  0  0  0  0  0  0
   30.3700   28.1400   32.3700 C   0  0  0  0  0  0  0  0  0  0  0  0
   29.1200   27.5200   32.2800 C   0  0  0  0  0  0  0  0  0  0  0  0
   28.2100   27.6100   33.3300 C   0  0  0  0  0  0  0  0  0  0  0  0
   26.9700   26.9700   33.3100 C   0  0  0  0  0  0  0  0  0  0  0  0
   26.5300   26.2400   32.2200 N   0  0  0  0  0  0  0  0  0  0  0  0
   30.1424   29.6565   35.7484 N   0  0  0  0  0  0  0  0  0  0  0  0
   30.7462   28.9247   36.8664 C   0  0  0  0  0  0  0  0  0  0  0  0
   30.4048   29.5943   38.2024 C   0  0  0  0  0  0  0  0  0  0  0  0
   30.7209   31.0728   38.1795 C   0  0  0  0  0  0  0  0  0  0  0  0
   31.0660   31.7439   39.3672 C   0  0  0  0  0  0  0  0  0  0  0  0
   31.1655   31.0532   40.5333 F   0  0  0  0  0  0  0  0  0  0  0  0
   31.2993   33.1296   39.3578 C   0  0  0  0  0  0  0  0  0  0  0  0
   31.6516   33.8450   40.6303 C   0  0  0  0  0  0  0  0  0  0  0  0
   31.1438   33.8487   38.1641 C   0  0  0  0  0  0  0  0  0  0  0  0
   30.7800   33.1933   36.9867 C   0  0  0  0  0  0  0  0  0  0  0  0
   30.5649   31.8065   36.9853 C   0  0  0  0  0  0  0  0  0  0  0  0
   30.1807   31.0943   35.7489 C   0  0  0  0  0  0  0  0  0  0  0  0
   29.8755   31.7395   34.7081 O   0  0  0  0  0  0  0  0  0  0  0  0
   23.2681   25.7738   35.7694 H   0  0  0  0  0  0  0  0  0  0  0  0
   24.5989   26.6538   36.5617 H   0  0  0  0  0  0  0  0  0  0  0  0
   31.6589   29.3879   33.5712 H   0  0  0  0  0  0  0  0  0  0  0  0
   31.0716   28.0645   31.5493 H   0  0  0  0  0  0  0  0  0  0  0  0
   28.8856   26.9764   31.3746 H   0  0  0  0  0  0  0  0  0  0  0  0
   27.1524   25.5358   31.7656 H   0  0  0  0  0  0  0  0  0  0  0  0
   25.6756   26.5399   31.6998 H   0  0  0  0  0  0  0  0  0  0  0  0
   31.8496   28.9023   36.7321 H   0  0  0  0  0  0  0  0  0  0  0  0
   30.3794   27.8749   36.8864 H   0  0  0  0  0  0  0  0  0  0  0  0
   30.9764   29.0821   39.0063 H   0  0  0  0  0  0  0  0  0  0  0  0
   29.3208   29.4652   38.4106 H   0  0  0  0  0  0  0  0  0  0  0  0
   30.7475   33.9314   41.2687 H   0  0  0  0  0  0  0  0  0  0  0  0
   32.4343   33.2820   41.1814 H   0  0  0  0  0  0  0  0  0  0  0  0
   32.0437   34.8641   40.4255 H   0  0  0  0  0  0  0  0  0  0  0  0
   31.3002   34.9202   38.1439 H   0  0  0  0  0  0  0  0  0  0  0  0
   30.6676   33.7712   36.0778 H   0  0  0  0  0  0  0  0  0  0  0  0
  1  2  1  0
  2  3  2  0
  2  4  1  0
  4  5  2  0
  5  6  1  0
  6  7  2  0
  7  8  1  0
  8  9  2  0
  9 10  1  0
 10 11  2  0
 11 12  1  0
 12 13  2  0
 13 14  1  0
  8 15  1  0
 15 16  1  0
 16 17  1  0
 17 18  1  0
 18 19  2  0
 19 20  1  0
 19 21  1  0
 21 22  1  0
 21 23  2  0
 23 24  1  0
 24 25  2  0
 25 26  1  0
 26 27  2  0
 13  4  1  0
 26 15  1  0
 12  7  1  0
 25 18  1  0
  1 28  1  0
  1 29  1  0
  9 30  1  0
 10 31  1  0
 11 32  1  0
 14 33  1  0
 14 34  1  0
 16 35  1  0
 16 36  1  0
 17 37  1  0
 17 38  1  0
 22 39  1  0
 22 40  1  0
 22 41  1  0
 23 42  1  0
 24 43  1  0
M  END
$$$$
confid_5
     RDKit          3D

 43 46  0  0  0  0  0  0  0  0999 V2000
   24.2000   26.2400   35.6900 N   0  0  0  0  0  0  0  0  0  0  0  0
   24.8500   26.2800   34.4800 C   0  0  0  0  0  0  0  0  0  0  0  0
   24.3100   25.7400   33.5400 O   0  0  0  0  0  0  0  0  0  0  0  0
   26.1800   26.9700   34.4700 C   0  0  0  0  0  0  0  0  0  0  0  0
   26.6500   27.6000   35.5500 N   0  0  0  0  0  0  0  0  0  0  0  0
   27.7900   28.2700   35.6200 N   0  0  0  0  0  0  0  0  0  0  0  0
   28.5400   28.3000   34.5100 C   0  0  0  0  0  0  0  0  0  0  0  0
   29.7700   28.9400   34.5600 C   0  0  0  0  0  0  0  0  0  0  0  0
   30.7000   28.8900   33.5000 C   0  0  0  0  0  0  0  0  0  0  0  0
   30.3700   28.1400   32.3700 C   0  0  0  0  0  0  0  0  0  0  0  0
   29.1200   27.5200   32.2800 C   0  0  0  0  0  0  0  0  0  0  0  0
   28.2100   27.6100   33.3300 C   0  0  0  0  0  0  0  0  0  0  0  0
   26.9700   26.9700   33.3100 C   0  0  0  0  0  0  0  0  0  0  0  0
   26.5300   26.2400   32.2200 N   0  0  0  0  0  0  0  0  0  0  0  0
   30.1297   29.6794   35.7404 N   0  0  0  0  0  0  0  0  0  0  0  0
   29.5295   30.9983   35.9696 C   0  0  0  0  0  0  0  0  0  0  0  0
   29.3904   31.2812   37.4697 C   0  0  0  0  0  0  0  0  0  0  0  0
   30.6957   31.0572   38.1987 C   0  0  0  0  0  0  0  0  0  0  0  0
   30.9940   31.7879   39.3636 C   0  0  0  0  0  0  0  0  0  0  0  0
   30.1298   32.7366   39.8105 F   0  0  0  0  0  0  0  0  0  0  0  0
   32.1787   31.5356   40.0761 C   0  0  0  0  0  0  0  0  0  0  0  0
   32.4862   32.3061   41.3279 C   0  0  0  0  0  0  0  0  0  0  0  0
   33.0427   30.5196   39.6431 C   0  0  0  0  0  0  0  0  0  0  0  0
   32.7421   29.7756   38.5010 C   0  0  0  0  0  0  0  0  0  0  0  0
   31.5707   30.0365   37.7737 C   0  0  0  0  0  0  0  0  0  0  0  0
   31.2349   29.2602   36.5618 C   0  0  0  0  0  0  0  0  0  0  0  0
   31.8970   28.2287   36.2615 O   0  0  0  0  0  0  0  0  0  0  0  0
   23.2681   25.7737   35.7694 H   0  0  0  0  0  0  0  0  0  0  0  0
   24.5988   26.6539   36.5617 H   0  0  0  0  0  0  0  0  0  0  0  0
   31.6553   29.3955   33.5660 H   0  0  0  0  0  0  0  0  0  0  0  0
   31.0729   28.0615   31.5507 H   0  0  0  0  0  0  0  0  0  0  0  0
   28.8951   26.9547   31.3854 H   0  0  0  0  0  0  0  0  0  0  0  0
   26.6263   26.6231   31.2536 H   0  0  0  0  0  0  0  0  0  0  0  0
   26.3242   25.2204   32.3142 H   0  0  0  0  0  0  0  0  0  0  0  0
   30.1730   31.7754   35.5027 H   0  0  0  0  0  0  0  0  0  0  0  0
   28.5237   31.0566   35.4986 H   0  0  0  0  0  0  0  0  0  0  0  0
   29.0429   32.3291   37.5972 H   0  0  0  0  0  0  0  0  0  0  0  0
   28.6210   30.6049   37.9005 H   0  0  0  0  0  0  0  0  0  0  0  0
   32.3066   33.3897   41.1637 H   0  0  0  0  0  0  0  0  0  0  0  0
   31.8331   31.9495   42.1517 H   0  0  0  0  0  0  0  0  0  0  0  0
   33.5472   32.1775   41.6310 H   0  0  0  0  0  0  0  0  0  0  0  0
   33.9497   30.2986   40.1922 H   0  0  0  0  0  0  0  0  0  0  0  0
   33.4263   28.9972   38.1867 H   0  0  0  0  0  0  0  0  0  0  0  0
  1  2  1  0
  2  3  2  0
  2  4  1  0
  4  5  2  0
  5  6  1  0
  6  7  2  0
  7  8  1  0
  8  9  2  0
  9 10  1  0
 10 11  2  0
 11 12  1  0
 12 13  2  0
 13 14  1  0
  8 15  1  0
 15 16  1  0
 16 17  1  0
 17 18  1  0
 18 19  2  0
 19 20  1  0
 19 21  1  0
 21 22  1  0
 21 23  2  0
 23 24  1  0
 24 25  2  0
 25 26  1  0
 26 27  2  0
 13  4  1  0
 26 15  1  0
 12  7  1  0
 25 18  1  0
  1 28  1  0
  1 29  1  0
  9 30  1  0
 10 31  1  0
 11 32  1  0
 14 33  1  0
 14 34  1  0
 16 35  1  0
 16 36  1  0
 17 37  1  0
 17 38  1  0
 22 39  1  0
 22 40  1  0
 22 41  1  0
 23 42  1  0
 24 43  1  0
M  END
$$$$
confid_6
     RDKit          3D

 43 46  0  0  0  0  0  0  0  0999 V2000
   24.2000   26.2400   35.6900 N   0  0  0  0  0  0  0  0  0  0  0  0
   24.8500   26.2800   34.4800 C   0  0  0  0  0  0  0  0  0  0  0  0
   24.3100   25.7400   33.5400 O   0  0  0  0  0  0  0  0  0  0  0  0
   26.1800   26.9700   34.4700 C   0  0  0  0  0  0  0  0  0  0  0  0
   26.6500   27.6000   35.5500 N   0  0  0  0  0  0  0  0  0  0  0  0
   27.7900   28.2700   35.6200 N   0  0  0  0  0  0  0  0  0  0  0  0
   28.5400   28.3000   34.5100 C   0  0  0  0  0  0  0  0  0  0  0  0
   29.7700   28.9400   34.5600 C   0  0  0  0  0  0  0  0  0  0  0  0
   30.7000   28.8900   33.5000 C   0  0  0  0  0  0  0  0  0  0  0  0
   30.3700   28.1400   32.3700 C   0  0  0  0  0  0  0  0  0  0  0  0
   29.1200   27.5200   32.2800 C   0  0  0  0  0  0  0  0  0  0  0  0
   28.2100   27.6100   33.3300 C   0  0  0  0  0  0  0  0  0  0  0  0
   26.9700   26.9700   33.3100 C   0  0  0  0  0  0  0  0  0  0  0  0
   26.5300   26.2400   32.2200 N   0  0  0  0  0  0  0  0  0  0  0  0
   30.1435   29.6644   35.7463 N   0  0  0  0  0  0  0  0  0  0  0  0
   30.4132   31.1033   35.6611 C   0  0  0  0  0  0  0  0  0  0  0  0
   30.0101   31.8076   36.9617 C   0  0  0  0  0  0  0  0  0  0  0  0
   30.6130   31.1302   38.1718 C   0  0  0  0  0  0  0  0  0  0  0  0
   30.8843   31.8708   39.3372 C   0  0  0  0  0  0  0  0  0  0  0  0
   30.6495   33.2091   39.3614 F   0  0  0  0  0  0  0  0  0  0  0  0
   31.3887   31.2326   40.4829 C   0  0  0  0  0  0  0  0  0  0  0  0
   31.6618   32.0237   41.7298 C   0  0  0  0  0  0  0  0  0  0  0  0
   31.5805   29.8437   40.4726 C   0  0  0  0  0  0  0  0  0  0  0  0
   31.2927   29.0992   39.3276 C   0  0  0  0  0  0  0  0  0  0  0  0
   30.8066   29.7332   38.1737 C   0  0  0  0  0  0  0  0  0  0  0  0
   30.4976   28.9619   36.9514 C   0  0  0  0  0  0  0  0  0  0  0  0
   30.5455   27.7008   36.9622 O   0  0  0  0  0  0  0  0  0  0  0  0
   23.2681   25.7738   35.7694 H   0  0  0  0  0  0  0  0  0  0  0  0
   24.5989   26.6538   36.5617 H   0  0  0  0  0  0  0  0  0  0  0  0
   31.6598   29.3861   33.5695 H   0  0  0  0  0  0  0  0  0  0  0  0
   31.0717   28.0642   31.5494 H   0  0  0  0  0  0  0  0  0  0  0  0
   28.8856   26.9763   31.3747 H   0  0  0  0  0  0  0  0  0  0  0  0
   27.1524   25.5357   31.7656 H   0  0  0  0  0  0  0  0  0  0  0  0
   25.6756   26.5399   31.6998 H   0  0  0  0  0  0  0  0  0  0  0  0
   29.8429   31.5531   34.8186 H   0  0  0  0  0  0  0  0  0  0  0  0
   31.4973   31.2617   35.4720 H   0  0  0  0  0  0  0  0  0  0  0  0
   30.3378   32.8679   36.9010 H   0  0  0  0  0  0  0  0  0  0  0  0
   28.9032   31.7910   37.0596 H   0  0  0  0  0  0  0  0  0  0  0  0
   32.2147   32.9537   41.4792 H   0  0  0  0  0  0  0  0  0  0  0  0
   32.2774   31.4434   42.4498 H   0  0  0  0  0  0  0  0  0  0  0  0
   30.7004   32.2916   42.2161 H   0  0  0  0  0  0  0  0  0  0  0  0
   31.9496   29.3335   41.3538 H   0  0  0  0  0  0  0  0  0  0  0  0
   31.4501   28.0280   39.3455 H   0  0  0  0  0  0  0  0  0  0  0  0
  1  2  1  0
  2  3  2  0
  2  4  1  0
  4  5  2  0
  5  6  1  0
  6  7  2  0
  7  8  1  0
  8  9  2  0
  9 10  1  0
 10 11  2  0
 11 12  1  0
 12 13  2  0
 13 14  1  0
  8 15  1  0
 15 16  1  0
 16 17  1  0
 17 18  1  0
 18 19  2  0
 19 20  1  0
 19 21  1  0
 21 22  1  0
 21 23  2  0
 23 24  1  0
 24 25  2  0
 25 26  1  0
 26 27  2  0
 13  4  1  0
 26 15  1  0
 12  7  1  0
 25 18  1  0
  1 28  1  0
  1 29  1  0
  9 30  1  0
 10 31  1  0
 11 32  1  0
 14 33  1  0
 14 34  1  0
 16 35  1  0
 16 36  1  0
 17 37  1  0
 17 38  1  0
 22 39  1  0
 22 40  1  0
 22 41  1  0
 23 42  1  0
 24 43  1  0
M  END
$$$$
