confid_0
     RDKit          3D

 41 44  0  0  0  0  0  0  0  0999 V2000
   24.4800   26.1000   36.1300 N   0  0  0  0  0  0  0  0  0  0  0  0
   25.2500   26.2500   34.9900 C   0  0  0  0  0  0  0  0  0  0  0  0
   24.7400   25.7600   33.9900 O   0  0  0  0  0  0  0  0  0  0  0  0
   26.5900   26.8900   34.9600 C   0  0  0  0  0  0  0  0  0  0  0  0
   27.0600   27.2400   36.1600 N   0  0  0  0  0  0  0  0  0  0  0  0
   28.3000   27.7100   36.2400 N   0  0  0  0  0  0  0  0  0  0  0  0
   29.0500   27.9600   35.1500 C   0  0  0  0  0  0  0  0  0  0  0  0
   30.3400   28.4900   35.2600 C   0  0  0  0  0  0  0  0  0  0  0  0
   31.1100   28.8200   34.1400 C   0  0  0  0  0  0  0  0  0  0  0  0
   30.5200   28.6700   32.8800 C   0  0  0  0  0  0  0  0  0  0  0  0
   29.2900   28.0200   32.7700 C   0  0  0  0  0  0  0  0  0  0  0  0
   28.5200   27.7100   33.8900 C   0  0  0  0  0  0  0  0  0  0  0  0
   27.2700   27.0800   33.7600 C   0  0  0  0  0  0  0  0  0  0  0  0
   26.7500   26.8800   32.4900 N   0  0  0  0  0  0  0  0  0  0  0  0
   23.5273   25.0438   36.3515 C   0  0  0  0  0  0  0  0  0  0  0  0
   23.4764   23.8157   35.7028 C   0  0  0  0  0  0  0  0  0  0  0  0
   22.4636   23.1183   36.3341 C   0  0  0  0  0  0  0  0  0  0  0  0
   22.0232   21.7465   36.0939 C   0  0  0  0  0  0  0  0  0  0  0  0
   22.6152   21.0107   35.2585 O   0  0  0  0  0  0  0  0  0  0  0  0
   20.9095   21.2588   36.8639 N   0  0  0  0  0  0  0  0  0  0  0  0
   20.0692   22.2240   37.5996 C   0  0  0  0  0  0  0  0  0  0  0  0
   20.9176   23.3327   38.2586 C   0  0  0  0  0  0  0  0  0  0  0  0
   21.9063   23.8528   37.3109 N   0  0  0  0  0  0  0  0  0  0  0  0
   22.5672   25.0259   37.3504 C   0  0  0  0  0  0  0  0  0  0  0  0
   22.2773   26.2961   38.5298 Cl  0  0  0  0  0  0  0  0  0  0  0  0
   20.5639   19.8368   36.8348 C   0  0  0  0  0  0  0  0  0  0  0  0
   24.6092   26.7971   36.8970 H   0  0  0  0  0  0  0  0  0  0  0  0
   30.7580   28.6629   36.2441 H   0  0  0  0  0  0  0  0  0  0  0  0
   32.0983   29.2479   34.2470 H   0  0  0  0  0  0  0  0  0  0  0  0
   31.0669   28.9543   31.9901 H   0  0  0  0  0  0  0  0  0  0  0  0
   28.9258   27.8587   31.7656 H   0  0  0  0  0  0  0  0  0  0  0  0
   25.7672   27.1502   32.2658 H   0  0  0  0  0  0  0  0  0  0  0  0
   27.2968   26.3786   31.7554 H   0  0  0  0  0  0  0  0  0  0  0  0
   24.1208   23.4521   34.9136 H   0  0  0  0  0  0  0  0  0  0  0  0
   19.3607   22.6942   36.8841 H   0  0  0  0  0  0  0  0  0  0  0  0
   19.4732   21.7131   38.3862 H   0  0  0  0  0  0  0  0  0  0  0  0
   21.4478   22.9148   39.1412 H   0  0  0  0  0  0  0  0  0  0  0  0
   20.2485   24.1513   38.6005 H   0  0  0  0  0  0  0  0  0  0  0  0
   21.4059   19.2403   37.2446 H   0  0  0  0  0  0  0  0  0  0  0  0
   20.3648   19.5198   35.7893 H   0  0  0  0  0  0  0  0  0  0  0  0
   19.6563   19.6287   37.4396 H   0  0  0  0  0  0  0  0  0  0  0  0
  1  2  1  0
  2  3  2  0
  2  4  1  0
  4  5  2  0
  5  6  1  0
  6  7  2  0
  7  8  1  0
  8  9  2  0
  9 10  1  0
 10 11  2  0
 11 12  1  0
 12 13  2  0
 13 14  1  0
  1 15  1  0
 15 16  1  0
 16 17  2  0
 17 18  1  0
 18 19  2  0
 18 20  1  0
 20 21  1  0
 21 22  1  0
 22 23  1  0
 23 24  1  0
 24 25  1  0
 20 26  1  0
 13  4  1  0
 24 15  2  0
 12  7  1  0
 23 17  1  0
  1 27  1  0
  8 28  1  0
  9 29  1  0
 10 30  1  0
 11 31  1  0
 14 32  1  0
 14 33  1  0
 16 34  1  0
 21 35  1  0
 21 36  1  0
 22 37  1  0
 22 38  1  0
 26 39  1  0
 26 40  1  0
 26 41  1  0
M  END
$$$$
confid_1
     RDKit          3D

 41 44  0  0  0  0  0  0  0  0999 V2000
   24.4800   26.1000   36.1300 N   0  0  0  0  0  0  0  0  0  0  0  0
   25.2500   26.2500   34.9900 C   0  0  0  0  0  0  0  0  0  0  0  0
   24.7400   25.7600   33.9900 O   0  0  0  0  0  0  0  0  0  0  0  0
   26.5900   26.8900   34.9600 C   0  0  0  0  0  0  0  0  0  0  0  0
   27.0600   27.2400   36.1600 N   0  0  0  0  0  0  0  0  0  0  0  0
   28.3000   27.7100   36.2400 N   0  0  0  0  0  0  0  0  0  0  0  0
   29.0500   27.9600   35.1500 C   0  0  0  0  0  0  0  0  0  0  0  0
   30.3400   28.4900   35.2600 C   0  0  0  0  0  0  0  0  0  0  0  0
   31.1100   28.8200   34.1400 C   0  0  0  0  0  0  0  0  0  0  0  0
   30.5200   28.6700   32.8800 C   0  0  0  0  0  0  0  0  0  0  0  0
   29.2900   28.0200   32.7700 C   0  0  0  0  0  0  0  0  0  0  0  0
   28.5200   27.7100   33.8900 C   0  0  0  0  0  0  0  0  0  0  0  0
   27.2700   27.0800   33.7600 C   0  0  0  0  0  0  0  0  0  0  0  0
   26.7500   26.8800   32.4900 N   0  0  0  0  0  0  0  0  0  0  0  0
   23.0428   26.0219   36.1451 C   0  0  0  0  0  0  0  0  0  0  0  0
   22.1742   26.4333   35.1413 C   0  0  0  0  0  0  0  0  0  0  0  0
   20.9082   26.2475   35.6641 C   0  0  0  0  0  0  0  0  0  0  0  0
   19.6208   26.5727   35.0556 C   0  0  0  0  0  0  0  0  0  0  0  0
   19.5581   27.1460   33.9343 O   0  0  0  0  0  0  0  0  0  0  0  0
   18.4309   26.2396   35.7934 N   0  0  0  0  0  0  0  0  0  0  0  0
   18.5337   25.3162   36.9403 C   0  0  0  0  0  0  0  0  0  0  0  0
   19.8002   25.5879   37.7800 C   0  0  0  0  0  0  0  0  0  0  0  0
   20.9676   25.7478   36.9095 N   0  0  0  0  0  0  0  0  0  0  0  0
   22.2714   25.6295   37.2272 C   0  0  0  0  0  0  0  0  0  0  0  0
   22.8743   25.1096   38.7939 Cl  0  0  0  0  0  0  0  0  0  0  0  0
   17.1279   26.7343   35.3465 C   0  0  0  0  0  0  0  0  0  0  0  0
   24.9703   26.0647   37.0514 H   0  0  0  0  0  0  0  0  0  0  0  0
   30.7580   28.6629   36.2441 H   0  0  0  0  0  0  0  0  0  0  0  0
   32.0983   29.2479   34.2470 H   0  0  0  0  0  0  0  0  0  0  0  0
   31.0669   28.9543   31.9901 H   0  0  0  0  0  0  0  0  0  0  0  0
   28.9258   27.8587   31.7656 H   0  0  0  0  0  0  0  0  0  0  0  0
   25.7671   27.1499   32.2660 H   0  0  0  0  0  0  0  0  0  0  0  0
   27.2969   26.3788   31.7553 H   0  0  0  0  0  0  0  0  0  0  0  0
   22.4233   26.8588   34.1783 H   0  0  0  0  0  0  0  0  0  0  0  0
   18.5779   24.2751   36.5540 H   0  0  0  0  0  0  0  0  0  0  0  0
   17.6421   25.3998   37.5986 H   0  0  0  0  0  0  0  0  0  0  0  0
   19.9613   24.7433   38.4839 H   0  0  0  0  0  0  0  0  0  0  0  0
   19.6585   26.5193   38.3693 H   0  0  0  0  0  0  0  0  0  0  0  0
   16.3076   26.3515   35.9897 H   0  0  0  0  0  0  0  0  0  0  0  0
   17.1176   27.8440   35.3841 H   0  0  0  0  0  0  0  0  0  0  0  0
   16.9364   26.4011   34.3047 H   0  0  0  0  0  0  0  0  0  0  0  0
  1  2  1  0
  2  3  2  0
  2  4  1  0
  4  5  2  0
  5  6  1  0
  6  7  2  0
  7  8  1  0
  8  9  2  0
  9 10  1  0
 10 11  2  0
 11 12  1  0
 12 13  2  0
 13 14  1  0
  1 15  1  0
 15 16  1  0
 16 17  2  0
 17 18  1  0
 18 19  2  0
 18 20  1  0
 20 21  1  0
 21 22  1  0
 22 23  1  0
 23 24  1  0
 24 25  1  0
 20 26  1  0
 13  4  1  0
 24 15  2  0
 12  7  1  0
 23 17  1  0
  1 27  1  0
  8 28  1  0
  9 29  1  0
 10 30  1  0
 11 31  1  0
 14 32  1  0
 14 33  1  0
 16 34  1  0
 21 35  1  0
 21 36  1  0
 22 37  1  0
 22 38  1  0
 26 39  1  0
 26 40  1  0
 26 41  1  0
M  END
$$$$
confid_2
     RDKit          3D

 41 44  0  0  0  0  0  0  0  0999 V2000
   24.4800   26.1000   36.1300 N   0  0  0  0  0  0  0  0  0  0  0  0
   25.2500   26.2500   34.9900 C   0  0  0  0  0  0  0  0  0  0  0  0
   24.7400   25.7600   33.9900 O   0  0  0  0  0  0  0  0  0  0  0  0
   26.5900   26.8900   34.9600 C   0  0  0  0  0  0  0  0  0  0  0  0
   27.0600   27.2400   36.1600 N   0  0  0  0  0  0  0  0  0  0  0  0
   28.3000   27.7100   36.2400 N   0  0  0  0  0  0  0  0  0  0  0  0
   29.0500   27.9600   35.1500 C   0  0  0  0  0  0  0  0  0  0  0  0
   30.3400   28.4900   35.2600 C   0  0  0  0  0  0  0  0  0  0  0  0
   31.1100   28.8200   34.1400 C   0  0  0  0  0  0  0  0  0  0  0  0
   30.5200   28.6700   32.8800 C   0  0  0  0  0  0  0  0  0  0  0  0
   29.2900   28.0200   32.7700 C   0  0  0  0  0  0  0  0  0  0  0  0
   28.5200   27.7100   33.8900 C   0  0  0  0  0  0  0  0  0  0  0  0
   27.2700   27.0800   33.7600 C   0  0  0  0  0  0  0  0  0  0  0  0
   26.7500   26.8800   32.4900 N   0  0  0  0  0  0  0  0  0  0  0  0
   23.5426   25.0325   36.3619 C   0  0  0  0  0  0  0  0  0  0  0  0
   23.4816   23.8118   35.7000 C   0  0  0  0  0  0  0  0  0  0  0  0
   22.4453   23.1271   36.3068 C   0  0  0  0  0  0  0  0  0  0  0  0
   21.9194   21.8044   35.9800 C   0  0  0  0  0  0  0  0  0  0  0  0
   22.3502   21.1616   34.9845 O   0  0  0  0  0  0  0  0  0  0  0  0
   20.8755   21.2758   36.8178 N   0  0  0  0  0  0  0  0  0  0  0  0
   20.6153   21.9085   38.1258 C   0  0  0  0  0  0  0  0  0  0  0  0
   20.7088   23.4475   38.0456 C   0  0  0  0  0  0  0  0  0  0  0  0
   21.9041   23.8503   37.3006 N   0  0  0  0  0  0  0  0  0  0  0  0
   22.5611   25.0257   37.3395 C   0  0  0  0  0  0  0  0  0  0  0  0
   22.1802   26.3485   38.4318 Cl  0  0  0  0  0  0  0  0  0  0  0  0
   20.1554   20.0663   36.4167 C   0  0  0  0  0  0  0  0  0  0  0  0
   24.6023   26.8028   36.8930 H   0  0  0  0  0  0  0  0  0  0  0  0
   30.7580   28.6629   36.2441 H   0  0  0  0  0  0  0  0  0  0  0  0
   32.0983   29.2479   34.2470 H   0  0  0  0  0  0  0  0  0  0  0  0
   31.0669   28.9543   31.9901 H   0  0  0  0  0  0  0  0  0  0  0  0
   28.9258   27.8587   31.7656 H   0  0  0  0  0  0  0  0  0  0  0  0
   27.2968   26.3786   31.7554 H   0  0  0  0  0  0  0  0  0  0  0  0
   25.7672   27.1501   32.2659 H   0  0  0  0  0  0  0  0  0  0  0  0
   24.1086   23.4583   34.8924 H   0  0  0  0  0  0  0  0  0  0  0  0
   19.6098   21.6300   38.5085 H   0  0  0  0  0  0  0  0  0  0  0  0
   21.3720   21.5424   38.8529 H   0  0  0  0  0  0  0  0  0  0  0  0
   19.8095   23.8452   37.5281 H   0  0  0  0  0  0  0  0  0  0  0  0
   20.7401   23.8658   39.0747 H   0  0  0  0  0  0  0  0  0  0  0  0
   19.4168   19.7608   37.1876 H   0  0  0  0  0  0  0  0  0  0  0  0
   19.6156   20.2525   35.4645 H   0  0  0  0  0  0  0  0  0  0  0  0
   20.8736   19.2314   36.2737 H   0  0  0  0  0  0  0  0  0  0  0  0
  1  2  1  0
  2  3  2  0
  2  4  1  0
  4  5  2  0
  5  6  1  0
  6  7  2  0
  7  8  1  0
  8  9  2  0
  9 10  1  0
 10 11  2  0
 11 12  1  0
 12 13  2  0
 13 14  1  0
  1 15  1  0
 15 16  1  0
 16 17  2  0
 17 18  1  0
 18 19  2  0
 18 20  1  0
 20 21  1  0
 21 22  1  0
 22 23  1  0
 23 24  1  0
 24 25  1  0
 20 26  1  0
 13  4  1  0
 24 15  2  0
 12  7  1  0
 23 17  1  0
  1 27  1  0
  8 28  1  0
  9 29  1  0
 10 30  1  0
 11 31  1  0
 14 32  1  0
 14 33  1  0
 16 34  1  0
 21 35  1  0
 21 36  1  0
 22 37  1  0
 22 38  1  0
 26 39  1  0
 26 40  1  0
 26 41  1  0
M  END
$$$$
confid_3
     RDKit          3D

 41 44  0  0  0  0  0  0  0  0999 V2000
   24.4800   26.1000   36.1300 N   0  0  0  0  0  0  0  0  0  0  0  0
   25.2500   26.2500   34.9900 C   0  0  0  0  0  0  0  0  0  0  0  0
   24.7400   25.7600   33.9900 O   0  0  0  0  0  0  0  0  0  0  0  0
   26.5900   26.8900   34.9600 C   0  0  0  0  0  0  0  0  0  0  0  0
   27.0600   27.2400   36.1600 N   0  0  0  0  0  0  0  0  0  0  0  0
   28.3000   27.7100   36.2400 N   0  0  0  0  0  0  0  0  0  0  0  0
   29.0500   27.9600   35.1500 C   0  0  0  0  0  0  0  0  0  0  0  0
   30.3400   28.4900   35.2600 C   0  0  0  0  0  0  0  0  0  0  0  0
   31.1100   28.8200   34.1400 C   0  0  0  0  0  0  0  0  0  0  0  0
   30.5200   28.6700   32.8800 C   0  0  0  0  0  0  0  0  0  0  0  0
   29.2900   28.0200   32.7700 C   0  0  0  0  0  0  0  0  0  0  0  0
   28.5200   27.7100   33.8900 C   0  0  0  0  0  0  0  0  0  0  0  0
   27.2700   27.0800   33.7600 C   0  0  0  0  0  0  0  0  0  0  0  0
   26.7500   26.8800   32.4900 N   0  0  0  0  0  0  0  0  0  0  0  0
   23.0419   26.0429   36.1483 C   0  0  0  0  0  0  0  0  0  0  0  0
   22.1750   26.4409   35.1374 C   0  0  0  0  0  0  0  0  0  0  0  0
   20.9082   26.2250   35.6467 C   0  0  0  0  0  0  0  0  0  0  0  0
   19.6203   26.4364   34.9915 C   0  0  0  0  0  0  0  0  0  0  0  0
   19.5561   26.7827   33.7809 O   0  0  0  0  0  0  0  0  0  0  0  0
   18.4308   26.2087   35.7691 N   0  0  0  0  0  0  0  0  0  0  0  0
   18.5428   26.1045   37.2373 C   0  0  0  0  0  0  0  0  0  0  0  0
   19.7940   25.3049   37.6599 C   0  0  0  0  0  0  0  0  0  0  0  0
   20.9659   25.7486   36.9011 N   0  0  0  0  0  0  0  0  0  0  0  0
   22.2690   25.6217   37.2181 C   0  0  0  0  0  0  0  0  0  0  0  0
   22.8701   24.9752   38.7375 Cl  0  0  0  0  0  0  0  0  0  0  0  0
   17.1213   26.1846   35.1160 C   0  0  0  0  0  0  0  0  0  0  0  0
   24.9711   26.0543   37.0505 H   0  0  0  0  0  0  0  0  0  0  0  0
   30.7580   28.6629   36.2441 H   0  0  0  0  0  0  0  0  0  0  0  0
   32.0983   29.2479   34.2470 H   0  0  0  0  0  0  0  0  0  0  0  0
   31.0669   28.9543   31.9901 H   0  0  0  0  0  0  0  0  0  0  0  0
   28.9258   27.8587   31.7656 H   0  0  0  0  0  0  0  0  0  0  0  0
   25.7671   27.1499   32.2660 H   0  0  0  0  0  0  0  0  0  0  0  0
   27.2969   26.3789   31.7553 H   0  0  0  0  0  0  0  0  0  0  0  0
   22.4246   26.8432   34.1647 H   0  0  0  0  0  0  0  0  0  0  0  0
   18.6145   27.1297   37.6605 H   0  0  0  0  0  0  0  0  0  0  0  0
   17.6427   25.6174   37.6706 H   0  0  0  0  0  0  0  0  0  0  0  0
   19.9672   25.4449   38.7485 H   0  0  0  0  0  0  0  0  0  0  0  0
   19.6243   24.2245   37.4635 H   0  0  0  0  0  0  0  0  0  0  0  0
   16.9502   27.1426   34.5812 H   0  0  0  0  0  0  0  0  0  0  0  0
   17.0831   25.3467   34.3885 H   0  0  0  0  0  0  0  0  0  0  0  0
   16.3034   26.0486   35.8547 H   0  0  0  0  0  0  0  0  0  0  0  0
  1  2  1  0
  2  3  2  0
  2  4  1  0
  4  5  2  0
  5  6  1  0
  6  7  2  0
  7  8  1  0
  8  9  2  0
  9 10  1  0
 10 11  2  0
 11 12  1  0
 12 13  2  0
 13 14  1  0
  1 15  1  0
 15 16  1  0
 16 17  2  0
 17 18  1  0
 18 19  2  0
 18 20  1  0
 20 21  1  0
 21 22  1  0
 22 23  1  0
 23 24  1  0
 24 25  1  0
 20 26  1  0
 13  4  1  0
 24 15  2  0
 12  7  1  0
 23 17  1  0
  1 27  1  0
  8 28  1  0
  9 29  1  0
 10 30  1  0
 11 31  1  0
 14 32  1  0
 14 33  1  0
 16 34  1  0
 21 35  1  0
 21 36  1  0
 22 37  1  0
 22 38  1  0
 26 39  1  0
 26 40  1  0
 26 41  1  0
M  END
$$$$
