confid_0
     RDKit          3D

 45 48  0  0  0  0  0  0  0  0999 V2000
   24.4800   26.1000   36.1300 N   0  0  0  0  0  0  0  0  0  0  0  0
   25.2500   26.2500   34.9900 C   0  0  0  0  0  0  0  0  0  0  0  0
   24.7400   25.7600   33.9900 O   0  0  0  0  0  0  0  0  0  0  0  0
   26.5900   26.8900   34.9600 C   0  0  0  0  0  0  0  0  0  0  0  0
   27.0600   27.2400   36.1600 N   0  0  0  0  0  0  0  0  0  0  0  0
   28.3000   27.7100   36.2400 N   0  0  0  0  0  0  0  0  0  0  0  0
   29.0500   27.9600   35.1500 C   0  0  0  0  0  0  0  0  0  0  0  0
   30.3400   28.4900   35.2600 C   0  0  0  0  0  0  0  0  0  0  0  0
   31.1100   28.8200   34.1400 C   0  0  0  0  0  0  0  0  0  0  0  0
   30.5200   28.6700   32.8800 C   0  0  0  0  0  0  0  0  0  0  0  0
   29.2900   28.0200   32.7700 C   0  0  0  0  0  0  0  0  0  0  0  0
   28.5200   27.7100   33.8900 C   0  0  0  0  0  0  0  0  0  0  0  0
   27.2700   27.0800   33.7600 C   0  0  0  0  0  0  0  0  0  0  0  0
   26.7500   26.8800   32.4900 N   0  0  0  0  0  0  0  0  0  0  0  0
   23.0496   25.9162   36.1204 C   0  0  0  0  0  0  0  0  0  0  0  0
   22.3200   26.4733   35.1170 N   0  0  0  0  0  0  0  0  0  0  0  0
   20.9696   26.3982   35.0696 C   0  0  0  0  0  0  0  0  0  0  0  0
   20.2644   25.7630   36.0927 C   0  0  0  0  0  0  0  0  0  0  0  0
   18.7541   25.7369   36.0528 C   0  0  0  0  0  0  0  0  0  0  0  0
   18.1968   24.5750   36.7729 N   0  0  0  0  0  0  0  0  0  0  0  0
   18.4595   23.3068   36.0695 C   0  0  0  0  0  0  0  0  0  0  0  0
   18.6571   24.5365   38.1749 C   0  0  0  0  0  0  0  0  0  0  0  0
   20.1547   24.6504   38.3014 C   0  0  0  0  0  0  0  0  0  0  0  0
   20.6785   24.3596   39.4092 O   0  0  0  0  0  0  0  0  0  0  0  0
   20.9654   25.2134   37.1835 C   0  0  0  0  0  0  0  0  0  0  0  0
   22.3897   25.2216   37.1656 C   0  0  0  0  0  0  0  0  0  0  0  0
   23.1965   24.4791   38.2069 C   0  0  0  0  0  0  0  0  0  0  0  0
   24.9455   26.2228   37.0566 H   0  0  0  0  0  0  0  0  0  0  0  0
   30.7582   28.6623   36.2441 H   0  0  0  0  0  0  0  0  0  0  0  0
   32.0994   29.2455   34.2469 H   0  0  0  0  0  0  0  0  0  0  0  0
   31.0715   28.9442   31.9898 H   0  0  0  0  0  0  0  0  0  0  0  0
   28.9437   27.8129   31.7669 H   0  0  0  0  0  0  0  0  0  0  0  0
   26.7155   27.6567   31.7927 H   0  0  0  0  0  0  0  0  0  0  0  0
   26.3616   25.9529   32.2110 H   0  0  0  0  0  0  0  0  0  0  0  0
   20.4442   26.8550   34.2408 H   0  0  0  0  0  0  0  0  0  0  0  0
   18.3929   25.7325   35.0003 H   0  0  0  0  0  0  0  0  0  0  0  0
   18.3720   26.6721   36.5163 H   0  0  0  0  0  0  0  0  0  0  0  0
   18.0665   23.3562   35.0315 H   0  0  0  0  0  0  0  0  0  0  0  0
   17.9318   22.4736   36.5808 H   0  0  0  0  0  0  0  0  0  0  0  0
   19.5454   23.0736   36.0328 H   0  0  0  0  0  0  0  0  0  0  0  0
   18.3096   23.6024   38.6691 H   0  0  0  0  0  0  0  0  0  0  0  0
   18.1943   25.3816   38.7285 H   0  0  0  0  0  0  0  0  0  0  0  0
   22.7372   23.4926   38.4229 H   0  0  0  0  0  0  0  0  0  0  0  0
   24.2209   24.2435   37.8540 H   0  0  0  0  0  0  0  0  0  0  0  0
   23.2623   25.0833   39.1356 H   0  0  0  0  0  0  0  0  0  0  0  0
  1  2  1  0
  2  3  2  0
  2  4  1  0
  4  5  2  0
  5  6  1  0
  6  7  2  0
  7  8  1  0
  8  9  2  0
  9 10  1  0
 10 11  2  0
 11 12  1  0
 12 13  2  0
 13 14  1  0
  1 15  1  0
 15 16  2  0
 16 17  1  0
 17 18  2  0
 18 19  1  0
 19 20  1  0
 20 21  1  0
 20 22  1  0
 22 23  1  0
 23 24  2  0
 23 25  1  0
 25 26  2  0
 26 27  1  0
 13  4  1  0
 26 15  1  0
 12  7  1  0
 25 18  1  0
  1 28  1  0
  8 29  1  0
  9 30  1  0
 10 31  1  0
 11 32  1  0
 14 33  1  0
 14 34  1  0
 17 35  1  0
 19 36  1  0
 19 37  1  0
 21 38  1  0
 21 39  1  0
 21 40  1  0
 22 41  1  0
 22 42  1  0
 27 43  1  0
 27 44  1  0
 27 45  1  0
M  END
$$$$
confid_1
     RDKit          3D

 45 48  0  0  0  0  0  0  0  0999 V2000
   24.4800   26.1000   36.1300 N   0  0  0  0  0  0  0  0  0  0  0  0
   25.2500   26.2500   34.9900 C   0  0  0  0  0  0  0  0  0  0  0  0
   24.7400   25.7600   33.9900 O   0  0  0  0  0  0  0  0  0  0  0  0
   26.5900   26.8900   34.9600 C   0  0  0  0  0  0  0  0  0  0  0  0
   27.0600   27.2400   36.1600 N   0  0  0  0  0  0  0  0  0  0  0  0
   28.3000   27.7100   36.2400 N   0  0  0  0  0  0  0  0  0  0  0  0
   29.0500   27.9600   35.1500 C   0  0  0  0  0  0  0  0  0  0  0  0
   30.3400   28.4900   35.2600 C   0  0  0  0  0  0  0  0  0  0  0  0
   31.1100   28.8200   34.1400 C   0  0  0  0  0  0  0  0  0  0  0  0
   30.5200   28.6700   32.8800 C   0  0  0  0  0  0  0  0  0  0  0  0
   29.2900   28.0200   32.7700 C   0  0  0  0  0  0  0  0  0  0  0  0
   28.5200   27.7100   33.8900 C   0  0  0  0  0  0  0  0  0  0  0  0
   27.2700   27.0800   33.7600 C   0  0  0  0  0  0  0  0  0  0  0  0
   26.7500   26.8800   32.4900 N   0  0  0  0  0  0  0  0  0  0  0  0
   23.4596   25.0942   36.2962 C   0  0  0  0  0  0  0  0  0  0  0  0
   23.6038   23.8976   35.6662 N   0  0  0  0  0  0  0  0  0  0  0  0
   22.7221   22.8823   35.8196 C   0  0  0  0  0  0  0  0  0  0  0  0
   21.6315   23.0220   36.6791 C   0  0  0  0  0  0  0  0  0  0  0  0
   20.6869   21.8600   36.8809 C   0  0  0  0  0  0  0  0  0  0  0  0
   19.3311   22.3027   37.2622 N   0  0  0  0  0  0  0  0  0  0  0  0
   18.6299   22.9678   36.1495 C   0  0  0  0  0  0  0  0  0  0  0  0
   19.3573   23.1381   38.4789 C   0  0  0  0  0  0  0  0  0  0  0  0
   20.3484   24.2702   38.3890 C   0  0  0  0  0  0  0  0  0  0  0  0
   20.2697   25.1945   39.2410 O   0  0  0  0  0  0  0  0  0  0  0  0
   21.4623   24.2206   37.3988 C   0  0  0  0  0  0  0  0  0  0  0  0
   22.3477   25.3082   37.1496 C   0  0  0  0  0  0  0  0  0  0  0  0
   22.1021   26.6778   37.7417 C   0  0  0  0  0  0  0  0  0  0  0  0
   24.7083   26.7010   36.9531 H   0  0  0  0  0  0  0  0  0  0  0  0
   30.7580   28.6629   36.2441 H   0  0  0  0  0  0  0  0  0  0  0  0
   32.0983   29.2479   34.2470 H   0  0  0  0  0  0  0  0  0  0  0  0
   31.0669   28.9543   31.9901 H   0  0  0  0  0  0  0  0  0  0  0  0
   28.9258   27.8587   31.7656 H   0  0  0  0  0  0  0  0  0  0  0  0
   25.7673   27.1503   32.2658 H   0  0  0  0  0  0  0  0  0  0  0  0
   27.2968   26.3786   31.7554 H   0  0  0  0  0  0  0  0  0  0  0  0
   22.8856   21.9556   35.2846 H   0  0  0  0  0  0  0  0  0  0  0  0
   21.0966   21.2058   37.6808 H   0  0  0  0  0  0  0  0  0  0  0  0
   20.6317   21.2392   35.9589 H   0  0  0  0  0  0  0  0  0  0  0  0
   17.5797   23.1848   36.4391 H   0  0  0  0  0  0  0  0  0  0  0  0
   18.5945   22.2977   35.2641 H   0  0  0  0  0  0  0  0  0  0  0  0
   19.1255   23.9197   35.8609 H   0  0  0  0  0  0  0  0  0  0  0  0
   18.3432   23.5443   38.6894 H   0  0  0  0  0  0  0  0  0  0  0  0
   19.6324   22.5007   39.3466 H   0  0  0  0  0  0  0  0  0  0  0  0
   22.6040   27.4800   37.1639 H   0  0  0  0  0  0  0  0  0  0  0  0
   21.0228   26.9313   37.6998 H   0  0  0  0  0  0  0  0  0  0  0  0
   22.4623   26.7061   38.7913 H   0  0  0  0  0  0  0  0  0  0  0  0
  1  2  1  0
  2  3  2  0
  2  4  1  0
  4  5  2  0
  5  6  1  0
  6  7  2  0
  7  8  1  0
  8  9  2  0
  9 10  1  0
 10 11  2  0
 11 12  1  0
 12 13  2  0
 13 14  1  0
  1 15  1  0
 15 16  2  0
 16 17  1  0
 17 18  2  0
 18 19  1  0
 19 20  1  0
 20 21  1  0
 20 22  1  0
 22 23  1  0
 23 24  2  0
 23 25  1  0
 25 26  2  0
 26 27  1  0
 13  4  1  0
 26 15  1  0
 12  7  1  0
 25 18  1  0
  1 28  1  0
  8 29  1  0
  9 30  1  0
 10 31  1  0
 11 32  1  0
 14 33  1  0
 14 34  1  0
 17 35  1  0
 19 36  1  0
 19 37  1  0
 21 38  1  0
 21 39  1  0
 21 40  1  0
 22 41  1  0
 22 42  1  0
 27 43  1  0
 27 44  1  0
 27 45  1  0
M  END
$$$$
confid_2
     RDKit          3D

 45 48  0  0  0  0  0  0  0  0999 V2000
   24.4800   26.1000   36.1300 N   0  0  0  0  0  0  0  0  0  0  0  0
   25.2500   26.2500   34.9900 C   0  0  0  0  0  0  0  0  0  0  0  0
   24.7400   25.7600   33.9900 O   0  0  0  0  0  0  0  0  0  0  0  0
   26.5900   26.8900   34.9600 C   0  0  0  0  0  0  0  0  0  0  0  0
   27.0600   27.2400   36.1600 N   0  0  0  0  0  0  0  0  0  0  0  0
   28.3000   27.7100   36.2400 N   0  0  0  0  0  0  0  0  0  0  0  0
   29.0500   27.9600   35.1500 C   0  0  0  0  0  0  0  0  0  0  0  0
   30.3400   28.4900   35.2600 C   0  0  0  0  0  0  0  0  0  0  0  0
   31.1100   28.8200   34.1400 C   0  0  0  0  0  0  0  0  0  0  0  0
   30.5200   28.6700   32.8800 C   0  0  0  0  0  0  0  0  0  0  0  0
   29.2900   28.0200   32.7700 C   0  0  0  0  0  0  0  0  0  0  0  0
   28.5200   27.7100   33.8900 C   0  0  0  0  0  0  0  0  0  0  0  0
   27.2700   27.0800   33.7600 C   0  0  0  0  0  0  0  0  0  0  0  0
   26.7500   26.8800   32.4900 N   0  0  0  0  0  0  0  0  0  0  0  0
   23.0506   25.9071   36.1219 C   0  0  0  0  0  0  0  0  0  0  0  0
   22.3174   26.4481   35.1126 N   0  0  0  0  0  0  0  0  0  0  0  0
   20.9672   26.3689   35.0688 C   0  0  0  0  0  0  0  0  0  0  0  0
   20.2623   25.7652   36.1116 C   0  0  0  0  0  0  0  0  0  0  0  0
   18.7539   25.6562   36.0176 C   0  0  0  0  0  0  0  0  0  0  0  0
   18.0994   25.5561   37.3378 N   0  0  0  0  0  0  0  0  0  0  0  0
   18.1019   26.8459   38.0511 C   0  0  0  0  0  0  0  0  0  0  0  0
   18.6856   24.4725   38.1493 C   0  0  0  0  0  0  0  0  0  0  0  0
   20.1691   24.6450   38.3159 C   0  0  0  0  0  0  0  0  0  0  0  0
   20.6920   24.3528   39.4241 O   0  0  0  0  0  0  0  0  0  0  0  0
   20.9718   25.1952   37.1892 C   0  0  0  0  0  0  0  0  0  0  0  0
   22.3959   25.2132   37.1703 C   0  0  0  0  0  0  0  0  0  0  0  0
   23.2085   24.4802   38.2140 C   0  0  0  0  0  0  0  0  0  0  0  0
   24.9446   26.2285   37.0563 H   0  0  0  0  0  0  0  0  0  0  0  0
   30.7580   28.6629   36.2441 H   0  0  0  0  0  0  0  0  0  0  0  0
   32.0983   29.2479   34.2470 H   0  0  0  0  0  0  0  0  0  0  0  0
   31.0669   28.9543   31.9901 H   0  0  0  0  0  0  0  0  0  0  0  0
   28.9258   27.8587   31.7656 H   0  0  0  0  0  0  0  0  0  0  0  0
   25.7672   27.1502   32.2659 H   0  0  0  0  0  0  0  0  0  0  0  0
   27.2969   26.3788   31.7553 H   0  0  0  0  0  0  0  0  0  0  0  0
   20.4410   26.7979   34.2256 H   0  0  0  0  0  0  0  0  0  0  0  0
   18.3374   26.5227   35.4567 H   0  0  0  0  0  0  0  0  0  0  0  0
   18.5067   24.7500   35.4236 H   0  0  0  0  0  0  0  0  0  0  0  0
   19.1355   27.2063   38.2443 H   0  0  0  0  0  0  0  0  0  0  0  0
   17.5672   26.7483   39.0200 H   0  0  0  0  0  0  0  0  0  0  0  0
   17.5618   27.6109   37.4535 H   0  0  0  0  0  0  0  0  0  0  0  0
   18.1885   24.4296   39.1439 H   0  0  0  0  0  0  0  0  0  0  0  0
   18.4953   23.4967   37.6527 H   0  0  0  0  0  0  0  0  0  0  0  0
   23.2747   25.0907   39.1387 H   0  0  0  0  0  0  0  0  0  0  0  0
   24.2326   24.2460   37.8594 H   0  0  0  0  0  0  0  0  0  0  0  0
   22.7536   23.4934   38.4380 H   0  0  0  0  0  0  0  0  0  0  0  0
  1  2  1  0
  2  3  2  0
  2  4  1  0
  4  5  2  0
  5  6  1  0
  6  7  2  0
  7  8  1  0
  8  9  2  0
  9 10  1  0
 10 11  2  0
 11 12  1  0
 12 13  2  0
 13 14  1  0
  1 15  1  0
 15 16  2  0
 16 17  1  0
 17 18  2  0
 18 19  1  0
 19 20  1  0
 20 21  1  0
 20 22  1  0
 22 23  1  0
 23 24  2  0
 23 25  1  0
 25 26  2  0
 26 27  1  0
 13  4  1  0
 26 15  1  0
 12  7  1  0
 25 18  1  0
  1 28  1  0
  8 29  1  0
  9 30  1  0
 10 31  1  0
 11 32  1  0
 14 33  1  0
 14 34  1  0
 17 35  1  0
 19 36  1  0
 19 37  1  0
 21 38  1  0
 21 39  1  0
 21 40  1  0
 22 41  1  0
 22 42  1  0
 27 43  1  0
 27 44  1  0
 27 45  1  0
M  END
$$$$
confid_3
     RDKit          3D

 45 48  0  0  0  0  0  0  0  0999 V2000
   24.4800   26.1000   36.1300 N   0  0  0  0  0  0  0  0  0  0  0  0
   25.2500   26.2500   34.9900 C   0  0  0  0  0  0  0  0  0  0  0  0
   24.7400   25.7600   33.9900 O   0  0  0  0  0  0  0  0  0  0  0  0
   26.5900   26.8900   34.9600 C   0  0  0  0  0  0  0  0  0  0  0  0
   27.0600   27.2400   36.1600 N   0  0  0  0  0  0  0  0  0  0  0  0
   28.3000   27.7100   36.2400 N   0  0  0  0  0  0  0  0  0  0  0  0
   29.0500   27.9600   35.1500 C   0  0  0  0  0  0  0  0  0  0  0  0
   30.3400   28.4900   35.2600 C   0  0  0  0  0  0  0  0  0  0  0  0
   31.1100   28.8200   34.1400 C   0  0  0  0  0  0  0  0  0  0  0  0
   30.5200   28.6700   32.8800 C   0  0  0  0  0  0  0  0  0  0  0  0
   29.2900   28.0200   32.7700 C   0  0  0  0  0  0  0  0  0  0  0  0
   28.5200   27.7100   33.8900 C   0  0  0  0  0  0  0  0  0  0  0  0
   27.2700   27.0800   33.7600 C   0  0  0  0  0  0  0  0  0  0  0  0
   26.7500   26.8800   32.4900 N   0  0  0  0  0  0  0  0  0  0  0  0
   23.4610   25.0928   36.2970 C   0  0  0  0  0  0  0  0  0  0  0  0
   23.6057   23.8967   35.6657 N   0  0  0  0  0  0  0  0  0  0  0  0
   22.7257   22.8798   35.8193 C   0  0  0  0  0  0  0  0  0  0  0  0
   21.6353   23.0180   36.6796 C   0  0  0  0  0  0  0  0  0  0  0  0
   20.6898   21.8614   36.8852 C   0  0  0  0  0  0  0  0  0  0  0  0
   19.3449   22.3604   37.2287 N   0  0  0  0  0  0  0  0  0  0  0  0
   18.4045   21.2355   37.3473 C   0  0  0  0  0  0  0  0  0  0  0  0
   19.3870   23.1163   38.4946 C   0  0  0  0  0  0  0  0  0  0  0  0
   20.3628   24.2569   38.4049 C   0  0  0  0  0  0  0  0  0  0  0  0
   20.2874   25.1756   39.2635 O   0  0  0  0  0  0  0  0  0  0  0  0
   21.4668   24.2163   37.4019 C   0  0  0  0  0  0  0  0  0  0  0  0
   22.3510   25.3045   37.1534 C   0  0  0  0  0  0  0  0  0  0  0  0
   22.1078   26.6713   37.7527 C   0  0  0  0  0  0  0  0  0  0  0  0
   24.7075   26.7020   36.9525 H   0  0  0  0  0  0  0  0  0  0  0  0
   30.7582   28.6623   36.2441 H   0  0  0  0  0  0  0  0  0  0  0  0
   32.0994   29.2455   34.2469 H   0  0  0  0  0  0  0  0  0  0  0  0
   31.0716   28.9442   31.9898 H   0  0  0  0  0  0  0  0  0  0  0  0
   28.9437   27.8129   31.7669 H   0  0  0  0  0  0  0  0  0  0  0  0
   26.7156   27.6566   31.7926 H   0  0  0  0  0  0  0  0  0  0  0  0
   26.3617   25.9528   32.2110 H   0  0  0  0  0  0  0  0  0  0  0  0
   22.8901   21.9536   35.2836 H   0  0  0  0  0  0  0  0  0  0  0  0
   21.0897   21.2043   37.6908 H   0  0  0  0  0  0  0  0  0  0  0  0
   20.6343   21.2662   35.9460 H   0  0  0  0  0  0  0  0  0  0  0  0
   18.3328   20.6942   36.3794 H   0  0  0  0  0  0  0  0  0  0  0  0
   18.7247   20.5214   38.1390 H   0  0  0  0  0  0  0  0  0  0  0  0
   17.3868   21.6113   37.5889 H   0  0  0  0  0  0  0  0  0  0  0  0
   18.3789   23.5331   38.7126 H   0  0  0  0  0  0  0  0  0  0  0  0
   19.6856   22.4572   39.3412 H   0  0  0  0  0  0  0  0  0  0  0  0
   21.0274   26.9219   37.7243 H   0  0  0  0  0  0  0  0  0  0  0  0
   22.6010   27.4763   37.1712 H   0  0  0  0  0  0  0  0  0  0  0  0
   22.4797   26.6971   38.7982 H   0  0  0  0  0  0  0  0  0  0  0  0
  1  2  1  0
  2  3  2  0
  2  4  1  0
  4  5  2  0
  5  6  1  0
  6  7  2  0
  7  8  1  0
  8  9  2  0
  9 10  1  0
 10 11  2  0
 11 12  1  0
 12 13  2  0
 13 14  1  0
  1 15  1  0
 15 16  2  0
 16 17  1  0
 17 18  2  0
 18 19  1  0
 19 20  1  0
 20 21  1  0
 20 22  1  0
 22 23  1  0
 23 24  2  0
 23 25  1  0
 25 26  2  0
 26 27  1  0
 13  4  1  0
 26 15  1  0
 12  7  1  0
 25 18  1  0
  1 28  1  0
  8 29  1  0
  9 30  1  0
 10 31  1  0
 11 32  1  0
 14 33  1  0
 14 34  1  0
 17 35  1  0
 19 36  1  0
 19 37  1  0
 21 38  1  0
 21 39  1  0
 21 40  1  0
 22 41  1  0
 22 42  1  0
 27 43  1  0
 27 44  1  0
 27 45  1  0
M  END
$$$$
confid_4
     RDKit          3D

 45 48  0  0  0  0  0  0  0  0999 V2000
   24.4800   26.1000   36.1300 N   0  0  0  0  0  0  0  0  0  0  0  0
   25.2500   26.2500   34.9900 C   0  0  0  0  0  0  0  0  0  0  0  0
   24.7400   25.7600   33.9900 O   0  0  0  0  0  0  0  0  0  0  0  0
   26.5900   26.8900   34.9600 C   0  0  0  0  0  0  0  0  0  0  0  0
   27.0600   27.2400   36.1600 N   0  0  0  0  0  0  0  0  0  0  0  0
   28.3000   27.7100   36.2400 N   0  0  0  0  0  0  0  0  0  0  0  0
   29.0500   27.9600   35.1500 C   0  0  0  0  0  0  0  0  0  0  0  0
   30.3400   28.4900   35.2600 C   0  0  0  0  0  0  0  0  0  0  0  0
   31.1100   28.8200   34.1400 C   0  0  0  0  0  0  0  0  0  0  0  0
   30.5200   28.6700   32.8800 C   0  0  0  0  0  0  0  0  0  0  0  0
   29.2900   28.0200   32.7700 C   0  0  0  0  0  0  0  0  0  0  0  0
   28.5200   27.7100   33.8900 C   0  0  0  0  0  0  0  0  0  0  0  0
   27.2700   27.0800   33.7600 C   0  0  0  0  0  0  0  0  0  0  0  0
   26.7500   26.8800   32.4900 N   0  0  0  0  0  0  0  0  0  0  0  0
   23.0508   25.9060   36.1212 C   0  0  0  0  0  0  0  0  0  0  0  0
   22.3173   26.4528   35.1151 N   0  0  0  0  0  0  0  0  0  0  0  0
   20.9670   26.3742   35.0710 C   0  0  0  0  0  0  0  0  0  0  0  0
   20.2627   25.7642   36.1106 C   0  0  0  0  0  0  0  0  0  0  0  0
   18.7567   25.6570   36.0251 C   0  0  0  0  0  0  0  0  0  0  0  0
   18.1501   25.5928   37.3693 N   0  0  0  0  0  0  0  0  0  0  0  0
   16.6879   25.4782   37.2558 C   0  0  0  0  0  0  0  0  0  0  0  0
   18.6883   24.4452   38.1203 C   0  0  0  0  0  0  0  0  0  0  0  0
   20.1676   24.6109   38.2984 C   0  0  0  0  0  0  0  0  0  0  0  0
   20.6882   24.2904   39.3999 O   0  0  0  0  0  0  0  0  0  0  0  0
   20.9728   25.1844   37.1834 C   0  0  0  0  0  0  0  0  0  0  0  0
   22.3969   25.2044   37.1651 C   0  0  0  0  0  0  0  0  0  0  0  0
   23.2096   24.4651   38.2043 C   0  0  0  0  0  0  0  0  0  0  0  0
   24.9439   26.2299   37.0565 H   0  0  0  0  0  0  0  0  0  0  0  0
   30.7582   28.6623   36.2441 H   0  0  0  0  0  0  0  0  0  0  0  0
   32.0994   29.2455   34.2469 H   0  0  0  0  0  0  0  0  0  0  0  0
   31.0715   28.9442   31.9898 H   0  0  0  0  0  0  0  0  0  0  0  0
   28.9437   27.8129   31.7669 H   0  0  0  0  0  0  0  0  0  0  0  0
   26.7151   27.6569   31.7928 H   0  0  0  0  0  0  0  0  0  0  0  0
   26.3621   25.9527   32.2109 H   0  0  0  0  0  0  0  0  0  0  0  0
   20.4407   26.8089   34.2309 H   0  0  0  0  0  0  0  0  0  0  0  0
   18.3594   26.5474   35.4882 H   0  0  0  0  0  0  0  0  0  0  0  0
   18.4985   24.7513   35.4303 H   0  0  0  0  0  0  0  0  0  0  0  0
   16.2254   25.4758   38.2663 H   0  0  0  0  0  0  0  0  0  0  0  0
   16.2764   26.3540   36.7092 H   0  0  0  0  0  0  0  0  0  0  0  0
   16.3950   24.5469   36.7209 H   0  0  0  0  0  0  0  0  0  0  0  0
   18.2080   24.3924   39.1230 H   0  0  0  0  0  0  0  0  0  0  0  0
   18.4912   23.4881   37.5861 H   0  0  0  0  0  0  0  0  0  0  0  0
   22.7632   23.4704   38.4101 H   0  0  0  0  0  0  0  0  0  0  0  0
   24.2392   24.2467   37.8558 H   0  0  0  0  0  0  0  0  0  0  0  0
   23.2618   25.0624   39.1384 H   0  0  0  0  0  0  0  0  0  0  0  0
  1  2  1  0
  2  3  2  0
  2  4  1  0
  4  5  2  0
  5  6  1  0
  6  7  2  0
  7  8  1  0
  8  9  2  0
  9 10  1  0
 10 11  2  0
 11 12  1  0
 12 13  2  0
 13 14  1  0
  1 15  1  0
 15 16  2  0
 16 17  1  0
 17 18  2  0
 18 19  1  0
 19 20  1  0
 20 21  1  0
 20 22  1  0
 22 23  1  0
 23 24  2  0
 23 25  1  0
 25 26  2  0
 26 27  1  0
 13  4  1  0
 26 15  1  0
 12  7  1  0
 25 18  1  0
  1 28  1  0
  8 29  1  0
  9 30  1  0
 10 31  1  0
 11 32  1  0
 14 33  1  0
 14 34  1  0
 17 35  1  0
 19 36  1  0
 19 37  1  0
 21 38  1  0
 21 39  1  0
 21 40  1  0
 22 41  1  0
 22 42  1  0
 27 43  1  0
 27 44  1  0
 27 45  1  0
M  END
$$$$
confid_5
     RDKit          3D

 45 48  0  0  0  0  0  0  0  0999 V2000
   24.4800   26.1000   36.1300 N   0  0  0  0  0  0  0  0  0  0  0  0
   25.2500   26.2500   34.9900 C   0  0  0  0  0  0  0  0  0  0  0  0
   24.7400   25.7600   33.9900 O   0  0  0  0  0  0  0  0  0  0  0  0
   26.5900   26.8900   34.9600 C   0  0  0  0  0  0  0  0  0  0  0  0
   27.0600   27.2400   36.1600 N   0  0  0  0  0  0  0  0  0  0  0  0
   28.3000   27.7100   36.2400 N   0  0  0  0  0  0  0  0  0  0  0  0
   29.0500   27.9600   35.1500 C   0  0  0  0  0  0  0  0  0  0  0  0
   30.3400   28.4900   35.2600 C   0  0  0  0  0  0  0  0  0  0  0  0
   31.1100   28.8200   34.1400 C   0  0  0  0  0  0  0  0  0  0  0  0
   30.5200   28.6700   32.8800 C   0  0  0  0  0  0  0  0  0  0  0  0
   29.2900   28.0200   32.7700 C   0  0  0  0  0  0  0  0  0  0  0  0
   28.5200   27.7100   33.8900 C   0  0  0  0  0  0  0  0  0  0  0  0
   27.2700   27.0800   33.7600 C   0  0  0  0  0  0  0  0  0  0  0  0
   26.7500   26.8800   32.4900 N   0  0  0  0  0  0  0  0  0  0  0  0
   23.4660   25.0883   36.2995 C   0  0  0  0  0  0  0  0  0  0  0  0
   23.6144   23.8931   35.6687 N   0  0  0  0  0  0  0  0  0  0  0  0
   22.7429   22.8704   35.8300 C   0  0  0  0  0  0  0  0  0  0  0  0
   21.6696   22.9918   36.7144 C   0  0  0  0  0  0  0  0  0  0  0  0
   20.6874   21.8454   36.8455 C   0  0  0  0  0  0  0  0  0  0  0  0
   19.9894   21.8300   38.1469 N   0  0  0  0  0  0  0  0  0  0  0  0
   20.8727   21.3823   39.2385 C   0  0  0  0  0  0  0  0  0  0  0  0
   19.3641   23.1338   38.4388 C   0  0  0  0  0  0  0  0  0  0  0  0
   20.3682   24.2513   38.4001 C   0  0  0  0  0  0  0  0  0  0  0  0
   20.2693   25.1836   39.2415 O   0  0  0  0  0  0  0  0  0  0  0  0
   21.4731   24.2067   37.4034 C   0  0  0  0  0  0  0  0  0  0  0  0
   22.3524   25.2984   37.1510 C   0  0  0  0  0  0  0  0  0  0  0  0
   22.0972   26.6691   37.7368 C   0  0  0  0  0  0  0  0  0  0  0  0
   24.7054   26.7042   36.9515 H   0  0  0  0  0  0  0  0  0  0  0  0
   30.7580   28.6629   36.2441 H   0  0  0  0  0  0  0  0  0  0  0  0
   32.0983   29.2479   34.2470 H   0  0  0  0  0  0  0  0  0  0  0  0
   31.0669   28.9543   31.9901 H   0  0  0  0  0  0  0  0  0  0  0  0
   28.9258   27.8587   31.7656 H   0  0  0  0  0  0  0  0  0  0  0  0
   27.2969   26.3786   31.7554 H   0  0  0  0  0  0  0  0  0  0  0  0
   25.7673   27.1503   32.2658 H   0  0  0  0  0  0  0  0  0  0  0  0
   22.9011   21.9513   35.2805 H   0  0  0  0  0  0  0  0  0  0  0  0
   21.2041   20.8727   36.6849 H   0  0  0  0  0  0  0  0  0  0  0  0
   19.9339   21.9381   36.0338 H   0  0  0  0  0  0  0  0  0  0  0  0
   20.3087   21.3414   40.1948 H   0  0  0  0  0  0  0  0  0  0  0  0
   21.2420   20.3554   39.0308 H   0  0  0  0  0  0  0  0  0  0  0  0
   21.7460   22.0586   39.3635 H   0  0  0  0  0  0  0  0  0  0  0  0
   18.8613   23.1018   39.4309 H   0  0  0  0  0  0  0  0  0  0  0  0
   18.5742   23.3402   37.6848 H   0  0  0  0  0  0  0  0  0  0  0  0
   22.5956   27.4720   37.1569 H   0  0  0  0  0  0  0  0  0  0  0  0
   22.4548   26.7037   38.7870 H   0  0  0  0  0  0  0  0  0  0  0  0
   21.0165   26.9157   37.6916 H   0  0  0  0  0  0  0  0  0  0  0  0
  1  2  1  0
  2  3  2  0
  2  4  1  0
  4  5  2  0
  5  6  1  0
  6  7  2  0
  7  8  1  0
  8  9  2  0
  9 10  1  0
 10 11  2  0
 11 12  1  0
 12 13  2  0
 13 14  1  0
  1 15  1  0
 15 16  2  0
 16 17  1  0
 17 18  2  0
 18 19  1  0
 19 20  1  0
 20 21  1  0
 20 22  1  0
 22 23  1  0
 23 24  2  0
 23 25  1  0
 25 26  2  0
 26 27  1  0
 13  4  1  0
 26 15  1  0
 12  7  1  0
 25 18  1  0
  1 28  1  0
  8 29  1  0
  9 30  1  0
 10 31  1  0
 11 32  1  0
 14 33  1  0
 14 34  1  0
 17 35  1  0
 19 36  1  0
 19 37  1  0
 21 38  1  0
 21 39  1  0
 21 40  1  0
 22 41  1  0
 22 42  1  0
 27 43  1  0
 27 44  1  0
 27 45  1  0
M  END
$$$$
confid_6
     RDKit          3D

 45 48  0  0  0  0  0  0  0  0999 V2000
   24.4800   26.1000   36.1300 N   0  0  0  0  0  0  0  0  0  0  0  0
   25.2500   26.2500   34.9900 C   0  0  0  0  0  0  0  0  0  0  0  0
   24.7400   25.7600   33.9900 O   0  0  0  0  0  0  0  0  0  0  0  0
   26.5900   26.8900   34.9600 C   0  0  0  0  0  0  0  0  0  0  0  0
   27.0600   27.2400   36.1600 N   0  0  0  0  0  0  0  0  0  0  0  0
   28.3000   27.7100   36.2400 N   0  0  0  0  0  0  0  0  0  0  0  0
   29.0500   27.9600   35.1500 C   0  0  0  0  0  0  0  0  0  0  0  0
   30.3400   28.4900   35.2600 C   0  0  0  0  0  0  0  0  0  0  0  0
   31.1100   28.8200   34.1400 C   0  0  0  0  0  0  0  0  0  0  0  0
   30.5200   28.6700   32.8800 C   0  0  0  0  0  0  0  0  0  0  0  0
   29.2900   28.0200   32.7700 C   0  0  0  0  0  0  0  0  0  0  0  0
   28.5200   27.7100   33.8900 C   0  0  0  0  0  0  0  0  0  0  0  0
   27.2700   27.0800   33.7600 C   0  0  0  0  0  0  0  0  0  0  0  0
   26.7500   26.8800   32.4900 N   0  0  0  0  0  0  0  0  0  0  0  0
   23.0511   25.9034   36.1215 C   0  0  0  0  0  0  0  0  0  0  0  0
   22.3165   26.4462   35.1136 N   0  0  0  0  0  0  0  0  0  0  0  0
   20.9667   26.3579   35.0656 C   0  0  0  0  0  0  0  0  0  0  0  0
   20.2671   25.7223   36.0927 C   0  0  0  0  0  0  0  0  0  0  0  0
   18.7603   25.6754   36.0576 C   0  0  0  0  0  0  0  0  0  0  0  0
   18.2731   24.4777   36.7674 N   0  0  0  0  0  0  0  0  0  0  0  0
   16.8086   24.3892   36.6614 C   0  0  0  0  0  0  0  0  0  0  0  0
   18.6727   24.5254   38.1864 C   0  0  0  0  0  0  0  0  0  0  0  0
   20.1660   24.6419   38.3184 C   0  0  0  0  0  0  0  0  0  0  0  0
   20.6891   24.3745   39.4327 O   0  0  0  0  0  0  0  0  0  0  0  0
   20.9737   25.1894   37.1894 C   0  0  0  0  0  0  0  0  0  0  0  0
   22.3974   25.2115   37.1724 C   0  0  0  0  0  0  0  0  0  0  0  0
   23.2103   24.4898   38.2235 C   0  0  0  0  0  0  0  0  0  0  0  0
   24.9443   26.2301   37.0562 H   0  0  0  0  0  0  0  0  0  0  0  0
   30.7580   28.6629   36.2441 H   0  0  0  0  0  0  0  0  0  0  0  0
   32.0983   29.2479   34.2470 H   0  0  0  0  0  0  0  0  0  0  0  0
   31.0669   28.9543   31.9901 H   0  0  0  0  0  0  0  0  0  0  0  0
   28.9258   27.8587   31.7656 H   0  0  0  0  0  0  0  0  0  0  0  0
   27.2969   26.3788   31.7553 H   0  0  0  0  0  0  0  0  0  0  0  0
   25.7672   27.1502   32.2659 H   0  0  0  0  0  0  0  0  0  0  0  0
   20.4375   26.8035   34.2331 H   0  0  0  0  0  0  0  0  0  0  0  0
   18.3572   26.6051   36.5201 H   0  0  0  0  0  0  0  0  0  0  0  0
   18.4226   25.6395   34.9974 H   0  0  0  0  0  0  0  0  0  0  0  0
   16.4417   23.4775   37.1804 H   0  0  0  0  0  0  0  0  0  0  0  0
   16.3155   25.2826   37.1060 H   0  0  0  0  0  0  0  0  0  0  0  0
   16.5075   24.3029   35.5952 H   0  0  0  0  0  0  0  0  0  0  0  0
   18.3470   23.5917   38.6961 H   0  0  0  0  0  0  0  0  0  0  0  0
   18.2001   25.3913   38.7033 H   0  0  0  0  0  0  0  0  0  0  0  0
   24.2334   24.2506   37.8693 H   0  0  0  0  0  0  0  0  0  0  0  0
   23.2786   25.1110   39.1409 H   0  0  0  0  0  0  0  0  0  0  0  0
   22.7547   23.5063   38.4600 H   0  0  0  0  0  0  0  0  0  0  0  0
  1  2  1  0
  2  3  2  0
  2  4  1  0
  4  5  2  0
  5  6  1  0
  6  7  2  0
  7  8  1  0
  8  9  2  0
  9 10  1  0
 10 11  2  0
 11 12  1  0
 12 13  2  0
 13 14  1  0
  1 15  1  0
 15 16  2  0
 16 17  1  0
 17 18  2  0
 18 19  1  0
 19 20  1  0
 20 21  1  0
 20 22  1  0
 22 23  1  0
 23 24  2  0
 23 25  1  0
 25 26  2  0
 26 27  1  0
 13  4  1  0
 26 15  1  0
 12  7  1  0
 25 18  1  0
  1 28  1  0
  8 29  1  0
  9 30  1  0
 10 31  1  0
 11 32  1  0
 14 33  1  0
 14 34  1  0
 17 35  1  0
 19 36  1  0
 19 37  1  0
 21 38  1  0
 21 39  1  0
 21 40  1  0
 22 41  1  0
 22 42  1  0
 27 43  1  0
 27 44  1  0
 27 45  1  0
M  END
$$$$
