confid_0
     RDKit          3D

 44 48  0  0  0  0  0  0  0  0999 V2000
   25.3300   26.2600   34.7600 N   0  0  0  0  0  0  0  0  0  0  0  0
   26.1200   25.9200   33.6900 C   0  0  0  0  0  0  0  0  0  0  0  0
   25.6300   25.1100   32.9400 O   0  0  0  0  0  0  0  0  0  0  0  0
   27.5200   26.3800   33.4600 C   0  0  0  0  0  0  0  0  0  0  0  0
   28.1600   26.6300   34.6100 N   0  0  0  0  0  0  0  0  0  0  0  0
   29.4800   26.8500   34.5700 N   0  0  0  0  0  0  0  0  0  0  0  0
   30.1900   26.7800   33.4400 C   0  0  0  0  0  0  0  0  0  0  0  0
   31.5600   27.0500   33.5000 C   0  0  0  0  0  0  0  0  0  0  0  0
   32.2700   27.2400   32.3100 C   0  0  0  0  0  0  0  0  0  0  0  0
   31.6100   27.2500   31.0800 C   0  0  0  0  0  0  0  0  0  0  0  0
   30.2700   26.8700   31.0600 C   0  0  0  0  0  0  0  0  0  0  0  0
   29.5100   26.6900   32.2300 C   0  0  0  0  0  0  0  0  0  0  0  0
   28.1400   26.4100   32.2000 C   0  0  0  0  0  0  0  0  0  0  0  0
   27.4300   26.1300   31.0500 N   0  0  0  0  0  0  0  0  0  0  0  0
   27.4329   25.0951   29.9958 C   0  0  0  0  0  0  0  0  0  0  0  0
   26.5323   25.8338   29.0397 C   0  0  0  0  0  0  0  0  0  0  0  0
   27.2435   26.3354   27.7608 C   0  0  0  0  0  0  0  0  0  0  0  0
   27.2608   25.2730   26.7097 C   0  0  0  0  0  0  0  0  0  0  0  0
   28.2270   25.1948   25.9052 O   0  0  0  0  0  0  0  0  0  0  0  0
   26.1402   24.3990   26.5679 N   0  0  0  0  0  0  0  0  0  0  0  0
   25.0854   24.3818   27.5411 C   0  0  0  0  0  0  0  0  0  0  0  0
   23.9275   23.6330   27.2842 C   0  0  0  0  0  0  0  0  0  0  0  0
   22.9097   23.5583   28.2339 C   0  0  0  0  0  0  0  0  0  0  0  0
   23.0487   24.2119   29.4565 C   0  0  0  0  0  0  0  0  0  0  0  0
   24.1983   24.9566   29.7296 C   0  0  0  0  0  0  0  0  0  0  0  0
   25.2210   25.0862   28.7633 C   0  0  0  0  0  0  0  0  0  0  0  0
   26.5485   26.8779   30.1332 C   0  0  0  0  0  0  0  0  0  0  0  0
   24.3715   25.8590   34.8758 H   0  0  0  0  0  0  0  0  0  0  0  0
   25.6646   26.9499   35.4685 H   0  0  0  0  0  0  0  0  0  0  0  0
   32.0667   27.1429   34.4530 H   0  0  0  0  0  0  0  0  0  0  0  0
   33.3284   27.4627   32.3495 H   0  0  0  0  0  0  0  0  0  0  0  0
   32.1492   27.4412   30.1611 H   0  0  0  0  0  0  0  0  0  0  0  0
   29.7876   26.8219   30.0934 H   0  0  0  0  0  0  0  0  0  0  0  0
   28.4592   24.9202   29.6049 H   0  0  0  0  0  0  0  0  0  0  0  0
   26.9959   24.1484   30.3861 H   0  0  0  0  0  0  0  0  0  0  0  0
   28.2824   26.6690   27.9801 H   0  0  0  0  0  0  0  0  0  0  0  0
   26.6864   27.2076   27.3562 H   0  0  0  0  0  0  0  0  0  0  0  0
   26.0972   23.7622   25.7401 H   0  0  0  0  0  0  0  0  0  0  0  0
   23.8184   23.1006   26.3477 H   0  0  0  0  0  0  0  0  0  0  0  0
   22.0197   22.9773   28.0290 H   0  0  0  0  0  0  0  0  0  0  0  0
   22.2690   24.1292   30.2029 H   0  0  0  0  0  0  0  0  0  0  0  0
   24.2799   25.4014   30.7076 H   0  0  0  0  0  0  0  0  0  0  0  0
   27.0418   27.8293   29.8298 H   0  0  0  0  0  0  0  0  0  0  0  0
   25.5746   27.1087   30.6069 H   0  0  0  0  0  0  0  0  0  0  0  0
  1  2  1  0
  2  3  2  0
  2  4  1  0
  4  5  2  0
  5  6  1  0
  6  7  2  0
  7  8  1  0
  8  9  2  0
  9 10  1  0
 10 11  2  0
 11 12  1  0
 12 13  2  0
 13 14  1  0
 14 15  1  0
 15 16  1  0
 16 17  1  0
 17 18  1  0
 18 19  2  0
 18 20  1  0
 20 21  1  0
 21 22  2  0
 22 23  1  0
 23 24  2  0
 24 25  1  0
 25 26  2  0
 16 27  1  0
 13  4  1  0
 27 14  1  0
 12  7  1  0
 26 16  1  0
 26 21  1  0
  1 28  1  0
  1 29  1  0
  8 30  1  0
  9 31  1  0
 10 32  1  0
 11 33  1  0
 15 34  1  0
 15 35  1  0
 17 36  1  0
 17 37  1  0
 20 38  1  0
 22 39  1  0
 23 40  1  0
 24 41  1  0
 25 42  1  0
 27 43  1  0
 27 44  1  0
M  END
$$$$
confid_1
     RDKit          3D

 44 48  0  0  0  0  0  0  0  0999 V2000
   25.3300   26.2600   34.7600 N   0  0  0  0  0  0  0  0  0  0  0  0
   26.1200   25.9200   33.6900 C   0  0  0  0  0  0  0  0  0  0  0  0
   25.6300   25.1100   32.9400 O   0  0  0  0  0  0  0  0  0  0  0  0
   27.5200   26.3800   33.4600 C   0  0  0  0  0  0  0  0  0  0  0  0
   28.1600   26.6300   34.6100 N   0  0  0  0  0  0  0  0  0  0  0  0
   29.4800   26.8500   34.5700 N   0  0  0  0  0  0  0  0  0  0  0  0
   30.1900   26.7800   33.4400 C   0  0  0  0  0  0  0  0  0  0  0  0
   31.5600   27.0500   33.5000 C   0  0  0  0  0  0  0  0  0  0  0  0
   32.2700   27.2400   32.3100 C   0  0  0  0  0  0  0  0  0  0  0  0
   31.6100   27.2500   31.0800 C   0  0  0  0  0  0  0  0  0  0  0  0
   30.2700   26.8700   31.0600 C   0  0  0  0  0  0  0  0  0  0  0  0
   29.5100   26.6900   32.2300 C   0  0  0  0  0  0  0  0  0  0  0  0
   28.1400   26.4100   32.2000 C   0  0  0  0  0  0  0  0  0  0  0  0
   27.4300   26.1300   31.0500 N   0  0  0  0  0  0  0  0  0  0  0  0
   26.3498   26.7681   30.2710 C   0  0  0  0  0  0  0  0  0  0  0  0
   26.3664   25.7834   29.1298 C   0  0  0  0  0  0  0  0  0  0  0  0
   26.9124   26.3653   27.8046 C   0  0  0  0  0  0  0  0  0  0  0  0
   25.8268   27.0471   27.0363 C   0  0  0  0  0  0  0  0  0  0  0  0
   26.0921   28.0483   26.3193 O   0  0  0  0  0  0  0  0  0  0  0  0
   24.5031   26.5108   27.0533 N   0  0  0  0  0  0  0  0  0  0  0  0
   24.1454   25.4468   27.9477 C   0  0  0  0  0  0  0  0  0  0  0  0
   22.8906   24.8340   27.8170 C   0  0  0  0  0  0  0  0  0  0  0  0
   22.4992   23.8304   28.7019 C   0  0  0  0  0  0  0  0  0  0  0  0
   23.3481   23.4450   29.7372 C   0  0  0  0  0  0  0  0  0  0  0  0
   24.5984   24.0498   29.8845 C   0  0  0  0  0  0  0  0  0  0  0  0
   25.0351   25.0365   28.9719 C   0  0  0  0  0  0  0  0  0  0  0  0
   27.4630   25.1429   29.9502 C   0  0  0  0  0  0  0  0  0  0  0  0
   25.6646   26.9500   35.4685 H   0  0  0  0  0  0  0  0  0  0  0  0
   24.3716   25.8588   34.8759 H   0  0  0  0  0  0  0  0  0  0  0  0
   32.0667   27.1431   34.4530 H   0  0  0  0  0  0  0  0  0  0  0  0
   33.3282   27.4637   32.3496 H   0  0  0  0  0  0  0  0  0  0  0  0
   32.1483   27.4455   30.1615 H   0  0  0  0  0  0  0  0  0  0  0  0
   29.7876   26.8416   30.0938 H   0  0  0  0  0  0  0  0  0  0  0  0
   26.6388   27.8020   29.9774 H   0  0  0  0  0  0  0  0  0  0  0  0
   25.3983   26.7737   30.8481 H   0  0  0  0  0  0  0  0  0  0  0  0
   27.3043   25.5344   27.1794 H   0  0  0  0  0  0  0  0  0  0  0  0
   27.7502   27.0746   27.9900 H   0  0  0  0  0  0  0  0  0  0  0  0
   23.7891   26.9060   26.4001 H   0  0  0  0  0  0  0  0  0  0  0  0
   22.2126   25.1408   27.0305 H   0  0  0  0  0  0  0  0  0  0  0  0
   21.5287   23.3631   28.5954 H   0  0  0  0  0  0  0  0  0  0  0  0
   23.0304   22.6843   30.4388 H   0  0  0  0  0  0  0  0  0  0  0  0
   25.1959   23.7500   30.7296 H   0  0  0  0  0  0  0  0  0  0  0  0
   28.4521   25.1440   29.4437 H   0  0  0  0  0  0  0  0  0  0  0  0
   27.2596   24.1214   30.3244 H   0  0  0  0  0  0  0  0  0  0  0  0
  1  2  1  0
  2  3  2  0
  2  4  1  0
  4  5  2  0
  5  6  1  0
  6  7  2  0
  7  8  1  0
  8  9  2  0
  9 10  1  0
 10 11  2  0
 11 12  1  0
 12 13  2  0
 13 14  1  0
 14 15  1  0
 15 16  1  0
 16 17  1  0
 17 18  1  0
 18 19  2  0
 18 20  1  0
 20 21  1  0
 21 22  2  0
 22 23  1  0
 23 24  2  0
 24 25  1  0
 25 26  2  0
 16 27  1  0
 13  4  1  0
 27 14  1  0
 12  7  1  0
 26 16  1  0
 26 21  1  0
  1 28  1  0
  1 29  1  0
  8 30  1  0
  9 31  1  0
 10 32  1  0
 11 33  1  0
 15 34  1  0
 15 35  1  0
 17 36  1  0
 17 37  1  0
 20 38  1  0
 22 39  1  0
 23 40  1  0
 24 41  1  0
 25 42  1  0
 27 43  1  0
 27 44  1  0
M  END
$$$$
confid_2
     RDKit          3D

 44 48  0  0  0  0  0  0  0  0999 V2000
   25.3300   26.2600   34.7600 N   0  0  0  0  0  0  0  0  0  0  0  0
   26.1200   25.9200   33.6900 C   0  0  0  0  0  0  0  0  0  0  0  0
   25.6300   25.1100   32.9400 O   0  0  0  0  0  0  0  0  0  0  0  0
   27.5200   26.3800   33.4600 C   0  0  0  0  0  0  0  0  0  0  0  0
   28.1600   26.6300   34.6100 N   0  0  0  0  0  0  0  0  0  0  0  0
   29.4800   26.8500   34.5700 N   0  0  0  0  0  0  0  0  0  0  0  0
   30.1900   26.7800   33.4400 C   0  0  0  0  0  0  0  0  0  0  0  0
   31.5600   27.0500   33.5000 C   0  0  0  0  0  0  0  0  0  0  0  0
   32.2700   27.2400   32.3100 C   0  0  0  0  0  0  0  0  0  0  0  0
   31.6100   27.2500   31.0800 C   0  0  0  0  0  0  0  0  0  0  0  0
   30.2700   26.8700   31.0600 C   0  0  0  0  0  0  0  0  0  0  0  0
   29.5100   26.6900   32.2300 C   0  0  0  0  0  0  0  0  0  0  0  0
   28.1400   26.4100   32.2000 C   0  0  0  0  0  0  0  0  0  0  0  0
   27.4300   26.1300   31.0500 N   0  0  0  0  0  0  0  0  0  0  0  0
   26.2793   26.6977   30.3163 C   0  0  0  0  0  0  0  0  0  0  0  0
   26.2291   25.6382   29.2456 C   0  0  0  0  0  0  0  0  0  0  0  0
   25.0000   24.7025   29.3339 C   0  0  0  0  0  0  0  0  0  0  0  0
   23.8346   25.2788   28.5976 C   0  0  0  0  0  0  0  0  0  0  0  0
   22.6615   25.0680   29.0054 O   0  0  0  0  0  0  0  0  0  0  0  0
   24.0505   25.9979   27.3830 N   0  0  0  0  0  0  0  0  0  0  0  0
   25.3722   26.3724   26.9682 C   0  0  0  0  0  0  0  0  0  0  0  0
   25.5565   26.9437   25.7005 C   0  0  0  0  0  0  0  0  0  0  0  0
   26.8199   27.3723   25.2958 C   0  0  0  0  0  0  0  0  0  0  0  0
   27.9048   27.2571   26.1624 C   0  0  0  0  0  0  0  0  0  0  0  0
   27.7360   26.6952   27.4299 C   0  0  0  0  0  0  0  0  0  0  0  0
   26.4765   26.2041   27.8404 C   0  0  0  0  0  0  0  0  0  0  0  0
   27.4080   25.0802   30.0114 C   0  0  0  0  0  0  0  0  0  0  0  0
   25.6646   26.9500   35.4684 H   0  0  0  0  0  0  0  0  0  0  0  0
   24.3715   25.8589   34.8759 H   0  0  0  0  0  0  0  0  0  0  0  0
   32.0668   27.1429   34.4530 H   0  0  0  0  0  0  0  0  0  0  0  0
   33.3285   27.4626   32.3495 H   0  0  0  0  0  0  0  0  0  0  0  0
   32.1492   27.4408   30.1610 H   0  0  0  0  0  0  0  0  0  0  0  0
   29.7884   26.8197   30.0955 H   0  0  0  0  0  0  0  0  0  0  0  0
   26.5325   27.7119   29.9328 H   0  0  0  0  0  0  0  0  0  0  0  0
   25.3696   26.7382   30.9538 H   0  0  0  0  0  0  0  0  0  0  0  0
   24.7186   24.5022   30.3914 H   0  0  0  0  0  0  0  0  0  0  0  0
   25.2532   23.7288   28.8618 H   0  0  0  0  0  0  0  0  0  0  0  0
   23.2254   26.2605   26.7974 H   0  0  0  0  0  0  0  0  0  0  0  0
   24.7158   27.0649   25.0289 H   0  0  0  0  0  0  0  0  0  0  0  0
   26.9539   27.8143   24.3169 H   0  0  0  0  0  0  0  0  0  0  0  0
   28.8782   27.6196   25.8578 H   0  0  0  0  0  0  0  0  0  0  0  0
   28.5918   26.6787   28.0838 H   0  0  0  0  0  0  0  0  0  0  0  0
   27.2048   24.0914   30.4819 H   0  0  0  0  0  0  0  0  0  0  0  0
   28.3642   25.0264   29.4562 H   0  0  0  0  0  0  0  0  0  0  0  0
  1  2  1  0
  2  3  2  0
  2  4  1  0
  4  5  2  0
  5  6  1  0
  6  7  2  0
  7  8  1  0
  8  9  2  0
  9 10  1  0
 10 11  2  0
 11 12  1  0
 12 13  2  0
 13 14  1  0
 14 15  1  0
 15 16  1  0
 16 17  1  0
 17 18  1  0
 18 19  2  0
 18 20  1  0
 20 21  1  0
 21 22  2  0
 22 23  1  0
 23 24  2  0
 24 25  1  0
 25 26  2  0
 16 27  1  0
 13  4  1  0
 27 14  1  0
 12  7  1  0
 26 16  1  0
 26 21  1  0
  1 28  1  0
  1 29  1  0
  8 30  1  0
  9 31  1  0
 10 32  1  0
 11 33  1  0
 15 34  1  0
 15 35  1  0
 17 36  1  0
 17 37  1  0
 20 38  1  0
 22 39  1  0
 23 40  1  0
 24 41  1  0
 25 42  1  0
 27 43  1  0
 27 44  1  0
M  END
$$$$
confid_3
     RDKit          3D

 44 48  0  0  0  0  0  0  0  0999 V2000
   25.3300   26.2600   34.7600 N   0  0  0  0  0  0  0  0  0  0  0  0
   26.1200   25.9200   33.6900 C   0  0  0  0  0  0  0  0  0  0  0  0
   25.6300   25.1100   32.9400 O   0  0  0  0  0  0  0  0  0  0  0  0
   27.5200   26.3800   33.4600 C   0  0  0  0  0  0  0  0  0  0  0  0
   28.1600   26.6300   34.6100 N   0  0  0  0  0  0  0  0  0  0  0  0
   29.4800   26.8500   34.5700 N   0  0  0  0  0  0  0  0  0  0  0  0
   30.1900   26.7800   33.4400 C   0  0  0  0  0  0  0  0  0  0  0  0
   31.5600   27.0500   33.5000 C   0  0  0  0  0  0  0  0  0  0  0  0
   32.2700   27.2400   32.3100 C   0  0  0  0  0  0  0  0  0  0  0  0
   31.6100   27.2500   31.0800 C   0  0  0  0  0  0  0  0  0  0  0  0
   30.2700   26.8700   31.0600 C   0  0  0  0  0  0  0  0  0  0  0  0
   29.5100   26.6900   32.2300 C   0  0  0  0  0  0  0  0  0  0  0  0
   28.1400   26.4100   32.2000 C   0  0  0  0  0  0  0  0  0  0  0  0
   27.4300   26.1300   31.0500 N   0  0  0  0  0  0  0  0  0  0  0  0
   27.4227   25.0943   29.9966 C   0  0  0  0  0  0  0  0  0  0  0  0
   26.3144   25.7051   29.1782 C   0  0  0  0  0  0  0  0  0  0  0  0
   25.0000   24.8895   29.1650 C   0  0  0  0  0  0  0  0  0  0  0  0
   25.0008   23.8873   28.0569 C   0  0  0  0  0  0  0  0  0  0  0  0
   24.4061   22.7860   28.2000 O   0  0  0  0  0  0  0  0  0  0  0  0
   25.6022   24.2168   26.8042 N   0  0  0  0  0  0  0  0  0  0  0  0
   26.4186   25.3878   26.6580 C   0  0  0  0  0  0  0  0  0  0  0  0
   26.8872   25.7429   25.3843 C   0  0  0  0  0  0  0  0  0  0  0  0
   27.7414   26.8333   25.2244 C   0  0  0  0  0  0  0  0  0  0  0  0
   28.1562   27.5624   26.3371 C   0  0  0  0  0  0  0  0  0  0  0  0
   27.7013   27.2190   27.6121 C   0  0  0  0  0  0  0  0  0  0  0  0
   26.7884   26.1546   27.7902 C   0  0  0  0  0  0  0  0  0  0  0  0
   26.3205   26.7334   30.2856 C   0  0  0  0  0  0  0  0  0  0  0  0
   25.6646   26.9500   35.4684 H   0  0  0  0  0  0  0  0  0  0  0  0
   24.3716   25.8587   34.8761 H   0  0  0  0  0  0  0  0  0  0  0  0
   32.0667   27.1429   34.4530 H   0  0  0  0  0  0  0  0  0  0  0  0
   33.3284   27.4627   32.3495 H   0  0  0  0  0  0  0  0  0  0  0  0
   32.1491   27.4413   30.1611 H   0  0  0  0  0  0  0  0  0  0  0  0
   29.7885   26.8220   30.0935 H   0  0  0  0  0  0  0  0  0  0  0  0
   28.4012   25.0519   29.4698 H   0  0  0  0  0  0  0  0  0  0  0  0
   27.1684   24.1011   30.4293 H   0  0  0  0  0  0  0  0  0  0  0  0
   24.1477   25.5819   28.9946 H   0  0  0  0  0  0  0  0  0  0  0  0
   24.8310   24.3797   30.1398 H   0  0  0  0  0  0  0  0  0  0  0  0
   25.4561   23.5777   25.9900 H   0  0  0  0  0  0  0  0  0  0  0  0
   26.5983   25.1645   24.5157 H   0  0  0  0  0  0  0  0  0  0  0  0
   28.1014   27.0989   24.2388 H   0  0  0  0  0  0  0  0  0  0  0  0
   28.8467   28.3869   26.2141 H   0  0  0  0  0  0  0  0  0  0  0  0
   28.0946   27.7745   28.4501 H   0  0  0  0  0  0  0  0  0  0  0  0
   25.3894   26.7404   30.8948 H   0  0  0  0  0  0  0  0  0  0  0  0
   26.5585   27.7712   29.9781 H   0  0  0  0  0  0  0  0  0  0  0  0
  1  2  1  0
  2  3  2  0
  2  4  1  0
  4  5  2  0
  5  6  1  0
  6  7  2  0
  7  8  1  0
  8  9  2  0
  9 10  1  0
 10 11  2  0
 11 12  1  0
 12 13  2  0
 13 14  1  0
 14 15  1  0
 15 16  1  0
 16 17  1  0
 17 18  1  0
 18 19  2  0
 18 20  1  0
 20 21  1  0
 21 22  2  0
 22 23  1  0
 23 24  2  0
 24 25  1  0
 25 26  2  0
 16 27  1  0
 13  4  1  0
 27 14  1  0
 12  7  1  0
 26 16  1  0
 26 21  1  0
  1 28  1  0
  1 29  1  0
  8 30  1  0
  9 31  1  0
 10 32  1  0
 11 33  1  0
 15 34  1  0
 15 35  1  0
 17 36  1  0
 17 37  1  0
 20 38  1  0
 22 39  1  0
 23 40  1  0
 24 41  1  0
 25 42  1  0
 27 43  1  0
 27 44  1  0
M  END
$$$$
confid_4
     RDKit          3D

 44 48  0  0  0  0  0  0  0  0999 V2000
   25.3300   26.2600   34.7600 N   0  0  0  0  0  0  0  0  0  0  0  0
   26.1200   25.9200   33.6900 C   0  0  0  0  0  0  0  0  0  0  0  0
   25.6300   25.1100   32.9400 O   0  0  0  0  0  0  0  0  0  0  0  0
   27.5200   26.3800   33.4600 C   0  0  0  0  0  0  0  0  0  0  0  0
   28.1600   26.6300   34.6100 N   0  0  0  0  0  0  0  0  0  0  0  0
   29.4800   26.8500   34.5700 N   0  0  0  0  0  0  0  0  0  0  0  0
   30.1900   26.7800   33.4400 C   0  0  0  0  0  0  0  0  0  0  0  0
   31.5600   27.0500   33.5000 C   0  0  0  0  0  0  0  0  0  0  0  0
   32.2700   27.2400   32.3100 C   0  0  0  0  0  0  0  0  0  0  0  0
   31.6100   27.2500   31.0800 C   0  0  0  0  0  0  0  0  0  0  0  0
   30.2700   26.8700   31.0600 C   0  0  0  0  0  0  0  0  0  0  0  0
   29.5100   26.6900   32.2300 C   0  0  0  0  0  0  0  0  0  0  0  0
   28.1400   26.4100   32.2000 C   0  0  0  0  0  0  0  0  0  0  0  0
   27.4300   26.1300   31.0500 N   0  0  0  0  0  0  0  0  0  0  0  0
   27.4080   25.0802   30.0114 C   0  0  0  0  0  0  0  0  0  0  0  0
   26.2291   25.6383   29.2456 C   0  0  0  0  0  0  0  0  0  0  0  0
   25.0000   24.7025   29.3339 C   0  0  0  0  0  0  0  0  0  0  0  0
   23.8346   25.2788   28.5976 C   0  0  0  0  0  0  0  0  0  0  0  0
   22.6615   25.0680   29.0054 O   0  0  0  0  0  0  0  0  0  0  0  0
   24.0505   25.9979   27.3830 N   0  0  0  0  0  0  0  0  0  0  0  0
   25.3722   26.3724   26.9682 C   0  0  0  0  0  0  0  0  0  0  0  0
   25.5565   26.9437   25.7005 C   0  0  0  0  0  0  0  0  0  0  0  0
   26.8199   27.3724   25.2958 C   0  0  0  0  0  0  0  0  0  0  0  0
   27.9048   27.2571   26.1624 C   0  0  0  0  0  0  0  0  0  0  0  0
   27.7360   26.6953   27.4299 C   0  0  0  0  0  0  0  0  0  0  0  0
   26.4765   26.2041   27.8404 C   0  0  0  0  0  0  0  0  0  0  0  0
   26.2793   26.6977   30.3163 C   0  0  0  0  0  0  0  0  0  0  0  0
   24.3715   25.8589   34.8759 H   0  0  0  0  0  0  0  0  0  0  0  0
   25.6646   26.9500   35.4684 H   0  0  0  0  0  0  0  0  0  0  0  0
   32.0668   27.1429   34.4530 H   0  0  0  0  0  0  0  0  0  0  0  0
   33.3285   27.4626   32.3495 H   0  0  0  0  0  0  0  0  0  0  0  0
   32.1492   27.4408   30.1610 H   0  0  0  0  0  0  0  0  0  0  0  0
   29.7884   26.8197   30.0955 H   0  0  0  0  0  0  0  0  0  0  0  0
   28.3642   25.0264   29.4562 H   0  0  0  0  0  0  0  0  0  0  0  0
   27.2048   24.0914   30.4819 H   0  0  0  0  0  0  0  0  0  0  0  0
   25.2532   23.7288   28.8618 H   0  0  0  0  0  0  0  0  0  0  0  0
   24.7186   24.5022   30.3914 H   0  0  0  0  0  0  0  0  0  0  0  0
   23.2254   26.2605   26.7974 H   0  0  0  0  0  0  0  0  0  0  0  0
   24.7158   27.0649   25.0289 H   0  0  0  0  0  0  0  0  0  0  0  0
   26.9539   27.8143   24.3169 H   0  0  0  0  0  0  0  0  0  0  0  0
   28.8782   27.6197   25.8578 H   0  0  0  0  0  0  0  0  0  0  0  0
   28.5918   26.6787   28.0838 H   0  0  0  0  0  0  0  0  0  0  0  0
   26.5325   27.7119   29.9328 H   0  0  0  0  0  0  0  0  0  0  0  0
   25.3696   26.7382   30.9538 H   0  0  0  0  0  0  0  0  0  0  0  0
  1  2  1  0
  2  3  2  0
  2  4  1  0
  4  5  2  0
  5  6  1  0
  6  7  2  0
  7  8  1  0
  8  9  2  0
  9 10  1  0
 10 11  2  0
 11 12  1  0
 12 13  2  0
 13 14  1  0
 14 15  1  0
 15 16  1  0
 16 17  1  0
 17 18  1  0
 18 19  2  0
 18 20  1  0
 20 21  1  0
 21 22  2  0
 22 23  1  0
 23 24  2  0
 24 25  1  0
 25 26  2  0
 16 27  1  0
 13  4  1  0
 27 14  1  0
 12  7  1  0
 26 16  1  0
 26 21  1  0
  1 28  1  0
  1 29  1  0
  8 30  1  0
  9 31  1  0
 10 32  1  0
 11 33  1  0
 15 34  1  0
 15 35  1  0
 17 36  1  0
 17 37  1  0
 20 38  1  0
 22 39  1  0
 23 40  1  0
 24 41  1  0
 25 42  1  0
 27 43  1  0
 27 44  1  0
M  END
$$$$
confid_5
     RDKit          3D

 44 48  0  0  0  0  0  0  0  0999 V2000
   25.3300   26.2600   34.7600 N   0  0  0  0  0  0  0  0  0  0  0  0
   26.1200   25.9200   33.6900 C   0  0  0  0  0  0  0  0  0  0  0  0
   25.6300   25.1100   32.9400 O   0  0  0  0  0  0  0  0  0  0  0  0
   27.5200   26.3800   33.4600 C   0  0  0  0  0  0  0  0  0  0  0  0
   28.1600   26.6300   34.6100 N   0  0  0  0  0  0  0  0  0  0  0  0
   29.4800   26.8500   34.5700 N   0  0  0  0  0  0  0  0  0  0  0  0
   30.1900   26.7800   33.4400 C   0  0  0  0  0  0  0  0  0  0  0  0
   31.5600   27.0500   33.5000 C   0  0  0  0  0  0  0  0  0  0  0  0
   32.2700   27.2400   32.3100 C   0  0  0  0  0  0  0  0  0  0  0  0
   31.6100   27.2500   31.0800 C   0  0  0  0  0  0  0  0  0  0  0  0
   30.2700   26.8700   31.0600 C   0  0  0  0  0  0  0  0  0  0  0  0
   29.5100   26.6900   32.2300 C   0  0  0  0  0  0  0  0  0  0  0  0
   28.1400   26.4100   32.2000 C   0  0  0  0  0  0  0  0  0  0  0  0
   27.4300   26.1300   31.0500 N   0  0  0  0  0  0  0  0  0  0  0  0
   27.4630   25.1429   29.9502 C   0  0  0  0  0  0  0  0  0  0  0  0
   26.3664   25.7834   29.1298 C   0  0  0  0  0  0  0  0  0  0  0  0
   26.9124   26.3653   27.8046 C   0  0  0  0  0  0  0  0  0  0  0  0
   25.8267   27.0471   27.0363 C   0  0  0  0  0  0  0  0  0  0  0  0
   26.0921   28.0483   26.3193 O   0  0  0  0  0  0  0  0  0  0  0  0
   24.5031   26.5108   27.0533 N   0  0  0  0  0  0  0  0  0  0  0  0
   24.1454   25.4468   27.9477 C   0  0  0  0  0  0  0  0  0  0  0  0
   22.8906   24.8340   27.8170 C   0  0  0  0  0  0  0  0  0  0  0  0
   22.4992   23.8304   28.7019 C   0  0  0  0  0  0  0  0  0  0  0  0
   23.3481   23.4450   29.7372 C   0  0  0  0  0  0  0  0  0  0  0  0
   24.5984   24.0498   29.8845 C   0  0  0  0  0  0  0  0  0  0  0  0
   25.0351   25.0365   28.9719 C   0  0  0  0  0  0  0  0  0  0  0  0
   26.3498   26.7681   30.2710 C   0  0  0  0  0  0  0  0  0  0  0  0
   25.6646   26.9500   35.4684 H   0  0  0  0  0  0  0  0  0  0  0  0
   24.3716   25.8588   34.8759 H   0  0  0  0  0  0  0  0  0  0  0  0
   32.0667   27.1431   34.4530 H   0  0  0  0  0  0  0  0  0  0  0  0
   33.3282   27.4637   32.3496 H   0  0  0  0  0  0  0  0  0  0  0  0
   32.1483   27.4455   30.1615 H   0  0  0  0  0  0  0  0  0  0  0  0
   29.7876   26.8416   30.0938 H   0  0  0  0  0  0  0  0  0  0  0  0
   28.4521   25.1440   29.4437 H   0  0  0  0  0  0  0  0  0  0  0  0
   27.2596   24.1214   30.3244 H   0  0  0  0  0  0  0  0  0  0  0  0
   27.7502   27.0746   27.9900 H   0  0  0  0  0  0  0  0  0  0  0  0
   27.3043   25.5344   27.1794 H   0  0  0  0  0  0  0  0  0  0  0  0
   23.7890   26.9060   26.4001 H   0  0  0  0  0  0  0  0  0  0  0  0
   22.2126   25.1408   27.0305 H   0  0  0  0  0  0  0  0  0  0  0  0
   21.5287   23.3631   28.5955 H   0  0  0  0  0  0  0  0  0  0  0  0
   23.0304   22.6843   30.4388 H   0  0  0  0  0  0  0  0  0  0  0  0
   25.1959   23.7500   30.7296 H   0  0  0  0  0  0  0  0  0  0  0  0
   26.6388   27.8020   29.9774 H   0  0  0  0  0  0  0  0  0  0  0  0
   25.3983   26.7737   30.8481 H   0  0  0  0  0  0  0  0  0  0  0  0
  1  2  1  0
  2  3  2  0
  2  4  1  0
  4  5  2  0
  5  6  1  0
  6  7  2  0
  7  8  1  0
  8  9  2  0
  9 10  1  0
 10 11  2  0
 11 12  1  0
 12 13  2  0
 13 14  1  0
 14 15  1  0
 15 16  1  0
 16 17  1  0
 17 18  1  0
 18 19  2  0
 18 20  1  0
 20 21  1  0
 21 22  2  0
 22 23  1  0
 23 24  2  0
 24 25  1  0
 25 26  2  0
 16 27  1  0
 13  4  1  0
 27 14  1  0
 12  7  1  0
 26 16  1  0
 26 21  1  0
  1 28  1  0
  1 29  1  0
  8 30  1  0
  9 31  1  0
 10 32  1  0
 11 33  1  0
 15 34  1  0
 15 35  1  0
 17 36  1  0
 17 37  1  0
 20 38  1  0
 22 39  1  0
 23 40  1  0
 24 41  1  0
 25 42  1  0
 27 43  1  0
 27 44  1  0
M  END
$$$$
confid_6
     RDKit          3D

 44 48  0  0  0  0  0  0  0  0999 V2000
   25.3300   26.2600   34.7600 N   0  0  0  0  0  0  0  0  0  0  0  0
   26.1200   25.9200   33.6900 C   0  0  0  0  0  0  0  0  0  0  0  0
   25.6300   25.1100   32.9400 O   0  0  0  0  0  0  0  0  0  0  0  0
   27.5200   26.3800   33.4600 C   0  0  0  0  0  0  0  0  0  0  0  0
   28.1600   26.6300   34.6100 N   0  0  0  0  0  0  0  0  0  0  0  0
   29.4800   26.8500   34.5700 N   0  0  0  0  0  0  0  0  0  0  0  0
   30.1900   26.7800   33.4400 C   0  0  0  0  0  0  0  0  0  0  0  0
   31.5600   27.0500   33.5000 C   0  0  0  0  0  0  0  0  0  0  0  0
   32.2700   27.2400   32.3100 C   0  0  0  0  0  0  0  0  0  0  0  0
   31.6100   27.2500   31.0800 C   0  0  0  0  0  0  0  0  0  0  0  0
   30.2700   26.8700   31.0600 C   0  0  0  0  0  0  0  0  0  0  0  0
   29.5100   26.6900   32.2300 C   0  0  0  0  0  0  0  0  0  0  0  0
   28.1400   26.4100   32.2000 C   0  0  0  0  0  0  0  0  0  0  0  0
   27.4300   26.1300   31.0500 N   0  0  0  0  0  0  0  0  0  0  0  0
   26.5485   26.8779   30.1332 C   0  0  0  0  0  0  0  0  0  0  0  0
   26.5323   25.8338   29.0397 C   0  0  0  0  0  0  0  0  0  0  0  0
   27.2435   26.3354   27.7608 C   0  0  0  0  0  0  0  0  0  0  0  0
   27.2608   25.2730   26.7097 C   0  0  0  0  0  0  0  0  0  0  0  0
   28.2270   25.1948   25.9052 O   0  0  0  0  0  0  0  0  0  0  0  0
   26.1401   24.3990   26.5679 N   0  0  0  0  0  0  0  0  0  0  0  0
   25.0854   24.3818   27.5411 C   0  0  0  0  0  0  0  0  0  0  0  0
   23.9275   23.6330   27.2842 C   0  0  0  0  0  0  0  0  0  0  0  0
   22.9096   23.5583   28.2339 C   0  0  0  0  0  0  0  0  0  0  0  0
   23.0486   24.2120   29.4565 C   0  0  0  0  0  0  0  0  0  0  0  0
   24.1983   24.9566   29.7296 C   0  0  0  0  0  0  0  0  0  0  0  0
   25.2210   25.0863   28.7633 C   0  0  0  0  0  0  0  0  0  0  0  0
   27.4329   25.0951   29.9958 C   0  0  0  0  0  0  0  0  0  0  0  0
   24.3715   25.8590   34.8758 H   0  0  0  0  0  0  0  0  0  0  0  0
   25.6646   26.9499   35.4685 H   0  0  0  0  0  0  0  0  0  0  0  0
   32.0667   27.1429   34.4530 H   0  0  0  0  0  0  0  0  0  0  0  0
   33.3284   27.4627   32.3495 H   0  0  0  0  0  0  0  0  0  0  0  0
   32.1492   27.4412   30.1611 H   0  0  0  0  0  0  0  0  0  0  0  0
   29.7876   26.8219   30.0934 H   0  0  0  0  0  0  0  0  0  0  0  0
   25.5746   27.1088   30.6069 H   0  0  0  0  0  0  0  0  0  0  0  0
   27.0418   27.8294   29.8299 H   0  0  0  0  0  0  0  0  0  0  0  0
   28.2824   26.6690   27.9801 H   0  0  0  0  0  0  0  0  0  0  0  0
   26.6864   27.2076   27.3562 H   0  0  0  0  0  0  0  0  0  0  0  0
   26.0971   23.7622   25.7400 H   0  0  0  0  0  0  0  0  0  0  0  0
   23.8184   23.1006   26.3477 H   0  0  0  0  0  0  0  0  0  0  0  0
   22.0197   22.9773   28.0290 H   0  0  0  0  0  0  0  0  0  0  0  0
   22.2690   24.1292   30.2029 H   0  0  0  0  0  0  0  0  0  0  0  0
   24.2799   25.4014   30.7076 H   0  0  0  0  0  0  0  0  0  0  0  0
   28.4592   24.9202   29.6049 H   0  0  0  0  0  0  0  0  0  0  0  0
   26.9959   24.1484   30.3861 H   0  0  0  0  0  0  0  0  0  0  0  0
  1  2  1  0
  2  3  2  0
  2  4  1  0
  4  5  2  0
  5  6  1  0
  6  7  2  0
  7  8  1  0
  8  9  2  0
  9 10  1  0
 10 11  2  0
 11 12  1  0
 12 13  2  0
 13 14  1  0
 14 15  1  0
 15 16  1  0
 16 17  1  0
 17 18  1  0
 18 19  2  0
 18 20  1  0
 20 21  1  0
 21 22  2  0
 22 23  1  0
 23 24  2  0
 24 25  1  0
 25 26  2  0
 16 27  1  0
 13  4  1  0
 27 14  1  0
 12  7  1  0
 26 16  1  0
 26 21  1  0
  1 28  1  0
  1 29  1  0
  8 30  1  0
  9 31  1  0
 10 32  1  0
 11 33  1  0
 15 34  1  0
 15 35  1  0
 17 36  1  0
 17 37  1  0
 20 38  1  0
 22 39  1  0
 23 40  1  0
 24 41  1  0
 25 42  1  0
 27 43  1  0
 27 44  1  0
M  END
$$$$
confid_7
     RDKit          3D

 44 48  0  0  0  0  0  0  0  0999 V2000
   25.3300   26.2600   34.7600 N   0  0  0  0  0  0  0  0  0  0  0  0
   26.1200   25.9200   33.6900 C   0  0  0  0  0  0  0  0  0  0  0  0
   25.6300   25.1100   32.9400 O   0  0  0  0  0  0  0  0  0  0  0  0
   27.5200   26.3800   33.4600 C   0  0  0  0  0  0  0  0  0  0  0  0
   28.1600   26.6300   34.6100 N   0  0  0  0  0  0  0  0  0  0  0  0
   29.4800   26.8500   34.5700 N   0  0  0  0  0  0  0  0  0  0  0  0
   30.1900   26.7800   33.4400 C   0  0  0  0  0  0  0  0  0  0  0  0
   31.5600   27.0500   33.5000 C   0  0  0  0  0  0  0  0  0  0  0  0
   32.2700   27.2400   32.3100 C   0  0  0  0  0  0  0  0  0  0  0  0
   31.6100   27.2500   31.0800 C   0  0  0  0  0  0  0  0  0  0  0  0
   30.2700   26.8700   31.0600 C   0  0  0  0  0  0  0  0  0  0  0  0
   29.5100   26.6900   32.2300 C   0  0  0  0  0  0  0  0  0  0  0  0
   28.1400   26.4100   32.2000 C   0  0  0  0  0  0  0  0  0  0  0  0
   27.4300   26.1300   31.0500 N   0  0  0  0  0  0  0  0  0  0  0  0
   26.3205   26.7334   30.2856 C   0  0  0  0  0  0  0  0  0  0  0  0
   26.3144   25.7051   29.1782 C   0  0  0  0  0  0  0  0  0  0  0  0
   25.0000   24.8895   29.1650 C   0  0  0  0  0  0  0  0  0  0  0  0
   25.0008   23.8873   28.0568 C   0  0  0  0  0  0  0  0  0  0  0  0
   24.4062   22.7860   28.2000 O   0  0  0  0  0  0  0  0  0  0  0  0
   25.6022   24.2168   26.8042 N   0  0  0  0  0  0  0  0  0  0  0  0
   26.4186   25.3878   26.6580 C   0  0  0  0  0  0  0  0  0  0  0  0
   26.8872   25.7429   25.3843 C   0  0  0  0  0  0  0  0  0  0  0  0
   27.7414   26.8333   25.2244 C   0  0  0  0  0  0  0  0  0  0  0  0
   28.1562   27.5624   26.3372 C   0  0  0  0  0  0  0  0  0  0  0  0
   27.7013   27.2190   27.6121 C   0  0  0  0  0  0  0  0  0  0  0  0
   26.7884   26.1546   27.7902 C   0  0  0  0  0  0  0  0  0  0  0  0
   27.4227   25.0943   29.9966 C   0  0  0  0  0  0  0  0  0  0  0  0
   25.6646   26.9501   35.4684 H   0  0  0  0  0  0  0  0  0  0  0  0
   24.3716   25.8587   34.8761 H   0  0  0  0  0  0  0  0  0  0  0  0
   32.0667   27.1429   34.4530 H   0  0  0  0  0  0  0  0  0  0  0  0
   33.3284   27.4627   32.3495 H   0  0  0  0  0  0  0  0  0  0  0  0
   32.1491   27.4413   30.1611 H   0  0  0  0  0  0  0  0  0  0  0  0
   29.7885   26.8220   30.0935 H   0  0  0  0  0  0  0  0  0  0  0  0
   26.5585   27.7712   29.9781 H   0  0  0  0  0  0  0  0  0  0  0  0
   25.3894   26.7404   30.8948 H   0  0  0  0  0  0  0  0  0  0  0  0
   24.1477   25.5819   28.9946 H   0  0  0  0  0  0  0  0  0  0  0  0
   24.8310   24.3796   30.1398 H   0  0  0  0  0  0  0  0  0  0  0  0
   25.4562   23.5777   25.9900 H   0  0  0  0  0  0  0  0  0  0  0  0
   26.5983   25.1645   24.5157 H   0  0  0  0  0  0  0  0  0  0  0  0
   28.1014   27.0989   24.2388 H   0  0  0  0  0  0  0  0  0  0  0  0
   28.8467   28.3869   26.2142 H   0  0  0  0  0  0  0  0  0  0  0  0
   28.0946   27.7745   28.4502 H   0  0  0  0  0  0  0  0  0  0  0  0
   27.1684   24.1011   30.4293 H   0  0  0  0  0  0  0  0  0  0  0  0
   28.4012   25.0519   29.4698 H   0  0  0  0  0  0  0  0  0  0  0  0
  1  2  1  0
  2  3  2  0
  2  4  1  0
  4  5  2  0
  5  6  1  0
  6  7  2  0
  7  8  1  0
  8  9  2  0
  9 10  1  0
 10 11  2  0
 11 12  1  0
 12 13  2  0
 13 14  1  0
 14 15  1  0
 15 16  1  0
 16 17  1  0
 17 18  1  0
 18 19  2  0
 18 20  1  0
 20 21  1  0
 21 22  2  0
 22 23  1  0
 23 24  2  0
 24 25  1  0
 25 26  2  0
 16 27  1  0
 13  4  1  0
 27 14  1  0
 12  7  1  0
 26 16  1  0
 26 21  1  0
  1 28  1  0
  1 29  1  0
  8 30  1  0
  9 31  1  0
 10 32  1  0
 11 33  1  0
 15 34  1  0
 15 35  1  0
 17 36  1  0
 17 37  1  0
 20 38  1  0
 22 39  1  0
 23 40  1  0
 24 41  1  0
 25 42  1  0
 27 43  1  0
 27 44  1  0
M  END
$$$$
