confid_0
     RDKit          3D

 56 60  0  0  0  0  0  0  0  0999 V2000
   24.6900   26.1200   35.5300 N   0  0  0  0  0  0  0  0  0  0  0  0
   25.6600   25.6700   34.6600 C   0  0  0  0  0  0  0  0  0  0  0  0
   25.2400   25.0100   33.7200 O   0  0  0  0  0  0  0  0  0  0  0  0
   27.0300   26.2200   34.8800 C   0  0  0  0  0  0  0  0  0  0  0  0
   27.3500   26.7300   36.0700 N   0  0  0  0  0  0  0  0  0  0  0  0
   28.5700   27.1800   36.3300 N   0  0  0  0  0  0  0  0  0  0  0  0
   29.5300   27.1100   35.3900 C   0  0  0  0  0  0  0  0  0  0  0  0
   30.8300   27.5700   35.6500 C   0  0  0  0  0  0  0  0  0  0  0  0
   31.8500   27.5400   34.6900 C   0  0  0  0  0  0  0  0  0  0  0  0
   31.5100   27.1200   33.4000 C   0  0  0  0  0  0  0  0  0  0  0  0
   30.2200   26.6300   33.1100 C   0  0  0  0  0  0  0  0  0  0  0  0
   29.2400   26.6600   34.1000 C   0  0  0  0  0  0  0  0  0  0  0  0
   27.9300   26.2600   33.8100 C   0  0  0  0  0  0  0  0  0  0  0  0
   27.5200   25.7100   32.6100 N   0  0  0  0  0  0  0  0  0  0  0  0
   23.4335   25.4566   35.7725 C   0  0  0  0  0  0  0  0  0  0  0  0
   22.4786   26.1761   36.2974 N   0  0  0  0  0  0  0  0  0  0  0  0
   21.1069   25.9240   36.6431 C   0  0  0  0  0  0  0  0  0  0  0  0
   20.3334   25.0721   35.9821 C   0  0  0  0  0  0  0  0  0  0  0  0
   18.9038   25.0504   35.5207 C   0  0  0  0  0  0  0  0  0  0  0  0
   19.0857   24.0185   34.6041 O   0  0  0  0  0  0  0  0  0  0  0  0
   20.3862   23.8850   35.0767 C   0  0  0  0  0  0  0  0  0  0  0  0
   21.4707   24.0166   34.0071 C   0  0  0  0  0  0  0  0  0  0  0  0
   22.7149   23.3940   34.5870 C   0  0  0  0  0  0  0  0  0  0  0  0
   23.3784   23.9736   35.6208 C   0  0  0  0  0  0  0  0  0  0  0  0
   24.3257   23.1881   36.3900 N   0  0  0  0  0  0  0  0  0  0  0  0
   24.9104   22.0158   35.7784 C   0  0  0  0  0  0  0  0  0  0  0  0
   25.8235   21.3648   36.3524 O   0  0  0  0  0  0  0  0  0  0  0  0
   24.4549   21.5912   34.4206 C   0  0  0  0  0  0  0  0  0  0  0  0
   22.9783   21.9416   34.2524 C   0  0  0  0  0  0  0  0  0  0  0  0
   24.5412   23.5084   37.8192 C   0  0  0  0  0  0  0  0  0  0  0  0
   24.0022   22.3914   38.7200 C   0  0  0  0  0  0  0  0  0  0  0  0
   26.0137   23.8157   38.1178 C   0  0  0  0  0  0  0  0  0  0  0  0
   24.8296   27.0452   35.9980 H   0  0  0  0  0  0  0  0  0  0  0  0
   31.0672   27.9417   36.6393 H   0  0  0  0  0  0  0  0  0  0  0  0
   32.8482   27.8885   34.9211 H   0  0  0  0  0  0  0  0  0  0  0  0
   32.2639   27.1264   32.6234 H   0  0  0  0  0  0  0  0  0  0  0  0
   30.0100   26.3033   32.1004 H   0  0  0  0  0  0  0  0  0  0  0  0
   28.1313   25.0430   32.0896 H   0  0  0  0  0  0  0  0  0  0  0  0
   26.6931   26.1015   32.1060 H   0  0  0  0  0  0  0  0  0  0  0  0
   20.5975   26.7139   37.1777 H   0  0  0  0  0  0  0  0  0  0  0  0
   18.2000   24.7630   36.3338 H   0  0  0  0  0  0  0  0  0  0  0  0
   18.6187   25.9945   35.0066 H   0  0  0  0  0  0  0  0  0  0  0  0
   20.4725   22.9366   35.6608 H   0  0  0  0  0  0  0  0  0  0  0  0
   21.6452   25.0732   33.7064 H   0  0  0  0  0  0  0  0  0  0  0  0
   21.1485   23.4637   33.0988 H   0  0  0  0  0  0  0  0  0  0  0  0
   25.0603   22.1180   33.6519 H   0  0  0  0  0  0  0  0  0  0  0  0
   24.5920   20.4953   34.2941 H   0  0  0  0  0  0  0  0  0  0  0  0
   22.6857   21.7267   33.2023 H   0  0  0  0  0  0  0  0  0  0  0  0
   22.3644   21.2983   34.9200 H   0  0  0  0  0  0  0  0  0  0  0  0
   23.9685   24.4225   38.0900 H   0  0  0  0  0  0  0  0  0  0  0  0
   24.5868   21.4556   38.6005 H   0  0  0  0  0  0  0  0  0  0  0  0
   22.9399   22.1855   38.4680 H   0  0  0  0  0  0  0  0  0  0  0  0
   24.0553   22.7051   39.7846 H   0  0  0  0  0  0  0  0  0  0  0  0
   26.4092   24.5354   37.3743 H   0  0  0  0  0  0  0  0  0  0  0  0
   26.1052   24.2722   39.1264 H   0  0  0  0  0  0  0  0  0  0  0  0
   26.6388   22.9002   38.1004 H   0  0  0  0  0  0  0  0  0  0  0  0
  1  2  1  0
  2  3  2  0
  2  4  1  0
  4  5  2  0
  5  6  1  0
  6  7  2  0
  7  8  1  0
  8  9  2  0
  9 10  1  0
 10 11  2  0
 11 12  1  0
 12 13  2  0
 13 14  1  0
  1 15  1  0
 15 16  2  0
 16 17  1  0
 17 18  2  0
 18 19  1  0
 19 20  1  0
 20 21  1  0
 21 22  1  0
 22 23  1  0
 23 24  2  0
 24 25  1  0
 25 26  1  0
 26 27  2  0
 26 28  1  0
 28 29  1  0
 25 30  1  0
 30 31  1  0
 30 32  1  0
 13  4  1  0
 24 15  1  0
 12  7  1  0
 21 18  1  0
 29 23  1  0
  1 33  1  0
  8 34  1  0
  9 35  1  0
 10 36  1  0
 11 37  1  0
 14 38  1  0
 14 39  1  0
 17 40  1  0
 19 41  1  0
 19 42  1  0
 21 43  1  0
 22 44  1  0
 22 45  1  0
 28 46  1  0
 28 47  1  0
 29 48  1  0
 29 49  1  0
 30 50  1  0
 31 51  1  0
 31 52  1  0
 31 53  1  0
 32 54  1  0
 32 55  1  0
 32 56  1  0
M  END
$$$$
confid_1
     RDKit          3D

 56 60  0  0  0  0  0  0  0  0999 V2000
   24.6900   26.1200   35.5300 N   0  0  0  0  0  0  0  0  0  0  0  0
   25.6600   25.6700   34.6600 C   0  0  0  0  0  0  0  0  0  0  0  0
   25.2400   25.0100   33.7200 O   0  0  0  0  0  0  0  0  0  0  0  0
   27.0300   26.2200   34.8800 C   0  0  0  0  0  0  0  0  0  0  0  0
   27.3500   26.7300   36.0700 N   0  0  0  0  0  0  0  0  0  0  0  0
   28.5700   27.1800   36.3300 N   0  0  0  0  0  0  0  0  0  0  0  0
   29.5300   27.1100   35.3900 C   0  0  0  0  0  0  0  0  0  0  0  0
   30.8300   27.5700   35.6500 C   0  0  0  0  0  0  0  0  0  0  0  0
   31.8500   27.5400   34.6900 C   0  0  0  0  0  0  0  0  0  0  0  0
   31.5100   27.1200   33.4000 C   0  0  0  0  0  0  0  0  0  0  0  0
   30.2200   26.6300   33.1100 C   0  0  0  0  0  0  0  0  0  0  0  0
   29.2400   26.6600   34.1000 C   0  0  0  0  0  0  0  0  0  0  0  0
   27.9300   26.2600   33.8100 C   0  0  0  0  0  0  0  0  0  0  0  0
   27.5200   25.7100   32.6100 N   0  0  0  0  0  0  0  0  0  0  0  0
   23.3122   26.3452   35.1745 C   0  0  0  0  0  0  0  0  0  0  0  0
   22.4398   26.4978   36.1356 N   0  0  0  0  0  0  0  0  0  0  0  0
   21.0425   26.7299   35.9257 C   0  0  0  0  0  0  0  0  0  0  0  0
   20.3364   25.8639   35.2124 C   0  0  0  0  0  0  0  0  0  0  0  0
   19.0128   25.7351   34.5209 C   0  0  0  0  0  0  0  0  0  0  0  0
   19.3053   24.5109   33.9213 O   0  0  0  0  0  0  0  0  0  0  0  0
   20.5322   24.5146   34.5812 C   0  0  0  0  0  0  0  0  0  0  0  0
   21.7390   24.3975   33.6234 C   0  0  0  0  0  0  0  0  0  0  0  0
   22.2044   25.7174   33.0340 C   0  0  0  0  0  0  0  0  0  0  0  0
   22.9408   26.6119   33.7474 C   0  0  0  0  0  0  0  0  0  0  0  0
   23.4731   27.7920   33.0886 N   0  0  0  0  0  0  0  0  0  0  0  0
   23.6356   27.7548   31.6498 C   0  0  0  0  0  0  0  0  0  0  0  0
   24.2374   28.6754   31.0363 O   0  0  0  0  0  0  0  0  0  0  0  0
   23.1189   26.5800   30.8783 C   0  0  0  0  0  0  0  0  0  0  0  0
   21.8878   26.0186   31.5882 C   0  0  0  0  0  0  0  0  0  0  0  0
   23.7163   29.0326   33.8608 C   0  0  0  0  0  0  0  0  0  0  0  0
   22.7629   30.1487   33.4172 C   0  0  0  0  0  0  0  0  0  0  0  0
   25.1842   29.4736   33.7785 C   0  0  0  0  0  0  0  0  0  0  0  0
   24.9458   26.2731   36.5319 H   0  0  0  0  0  0  0  0  0  0  0  0
   31.0673   27.9417   36.6392 H   0  0  0  0  0  0  0  0  0  0  0  0
   32.8482   27.8887   34.9209 H   0  0  0  0  0  0  0  0  0  0  0  0
   32.2639   27.1264   32.6235 H   0  0  0  0  0  0  0  0  0  0  0  0
   30.0099   26.3039   32.1003 H   0  0  0  0  0  0  0  0  0  0  0  0
   28.1322   25.0459   32.0869 H   0  0  0  0  0  0  0  0  0  0  0  0
   26.6920   26.1022   32.1076 H   0  0  0  0  0  0  0  0  0  0  0  0
   20.5860   27.6428   36.2842 H   0  0  0  0  0  0  0  0  0  0  0  0
   18.1665   25.6508   35.2386 H   0  0  0  0  0  0  0  0  0  0  0  0
   18.8651   26.5317   33.7579 H   0  0  0  0  0  0  0  0  0  0  0  0
   20.5578   23.7096   35.3509 H   0  0  0  0  0  0  0  0  0  0  0  0
   21.4750   23.6811   32.8164 H   0  0  0  0  0  0  0  0  0  0  0  0
   22.5880   23.9274   34.1672 H   0  0  0  0  0  0  0  0  0  0  0  0
   23.9113   25.8028   30.8210 H   0  0  0  0  0  0  0  0  0  0  0  0
   22.8433   26.8896   29.8463 H   0  0  0  0  0  0  0  0  0  0  0  0
   21.0682   26.7687   31.5532 H   0  0  0  0  0  0  0  0  0  0  0  0
   21.5393   25.1111   31.0497 H   0  0  0  0  0  0  0  0  0  0  0  0
   23.4997   28.8621   34.9373 H   0  0  0  0  0  0  0  0  0  0  0  0
   21.7129   29.7938   33.4917 H   0  0  0  0  0  0  0  0  0  0  0  0
   22.8802   31.0349   34.0776 H   0  0  0  0  0  0  0  0  0  0  0  0
   22.9616   30.4617   32.3711 H   0  0  0  0  0  0  0  0  0  0  0  0
   25.4157   29.9576   32.8065 H   0  0  0  0  0  0  0  0  0  0  0  0
   25.4020   30.2053   34.5868 H   0  0  0  0  0  0  0  0  0  0  0  0
   25.8539   28.6001   33.9129 H   0  0  0  0  0  0  0  0  0  0  0  0
  1  2  1  0
  2  3  2  0
  2  4  1  0
  4  5  2  0
  5  6  1  0
  6  7  2  0
  7  8  1  0
  8  9  2  0
  9 10  1  0
 10 11  2  0
 11 12  1  0
 12 13  2  0
 13 14  1  0
  1 15  1  0
 15 16  2  0
 16 17  1  0
 17 18  2  0
 18 19  1  0
 19 20  1  0
 20 21  1  0
 21 22  1  0
 22 23  1  0
 23 24  2  0
 24 25  1  0
 25 26  1  0
 26 27  2  0
 26 28  1  0
 28 29  1  0
 25 30  1  0
 30 31  1  0
 30 32  1  0
 13  4  1  0
 24 15  1  0
 12  7  1  0
 21 18  1  0
 29 23  1  0
  1 33  1  0
  8 34  1  0
  9 35  1  0
 10 36  1  0
 11 37  1  0
 14 38  1  0
 14 39  1  0
 17 40  1  0
 19 41  1  0
 19 42  1  0
 21 43  1  0
 22 44  1  0
 22 45  1  0
 28 46  1  0
 28 47  1  0
 29 48  1  0
 29 49  1  0
 30 50  1  0
 31 51  1  0
 31 52  1  0
 31 53  1  0
 32 54  1  0
 32 55  1  0
 32 56  1  0
M  END
$$$$
confid_2
     RDKit          3D

 56 60  0  0  0  0  0  0  0  0999 V2000
   24.6900   26.1200   35.5300 N   0  0  0  0  0  0  0  0  0  0  0  0
   25.6600   25.6700   34.6600 C   0  0  0  0  0  0  0  0  0  0  0  0
   25.2400   25.0100   33.7200 O   0  0  0  0  0  0  0  0  0  0  0  0
   27.0300   26.2200   34.8800 C   0  0  0  0  0  0  0  0  0  0  0  0
   27.3500   26.7300   36.0700 N   0  0  0  0  0  0  0  0  0  0  0  0
   28.5700   27.1800   36.3300 N   0  0  0  0  0  0  0  0  0  0  0  0
   29.5300   27.1100   35.3900 C   0  0  0  0  0  0  0  0  0  0  0  0
   30.8300   27.5700   35.6500 C   0  0  0  0  0  0  0  0  0  0  0  0
   31.8500   27.5400   34.6900 C   0  0  0  0  0  0  0  0  0  0  0  0
   31.5100   27.1200   33.4000 C   0  0  0  0  0  0  0  0  0  0  0  0
   30.2200   26.6300   33.1100 C   0  0  0  0  0  0  0  0  0  0  0  0
   29.2400   26.6600   34.1000 C   0  0  0  0  0  0  0  0  0  0  0  0
   27.9300   26.2600   33.8100 C   0  0  0  0  0  0  0  0  0  0  0  0
   27.5200   25.7100   32.6100 N   0  0  0  0  0  0  0  0  0  0  0  0
   23.3029   26.3177   35.1905 C   0  0  0  0  0  0  0  0  0  0  0  0
   22.4517   26.3386   36.1805 N   0  0  0  0  0  0  0  0  0  0  0  0
   21.0233   26.4635   36.2762 C   0  0  0  0  0  0  0  0  0  0  0  0
   20.1876   26.0164   35.3473 C   0  0  0  0  0  0  0  0  0  0  0  0
   18.8629   25.3076   35.3435 C   0  0  0  0  0  0  0  0  0  0  0  0
   18.9511   24.8885   34.0191 O   0  0  0  0  0  0  0  0  0  0  0  0
   20.1161   25.6380   33.9038 C   0  0  0  0  0  0  0  0  0  0  0  0
   21.3418   24.8463   33.4487 C   0  0  0  0  0  0  0  0  0  0  0  0
   22.3364   25.8607   32.9447 C   0  0  0  0  0  0  0  0  0  0  0  0
   22.9701   26.7128   33.7910 C   0  0  0  0  0  0  0  0  0  0  0  0
   23.6359   27.8846   33.2536 N   0  0  0  0  0  0  0  0  0  0  0  0
   24.0604   27.8648   31.8718 C   0  0  0  0  0  0  0  0  0  0  0  0
   24.7871   28.7783   31.3979 O   0  0  0  0  0  0  0  0  0  0  0  0
   23.6673   26.7180   30.9970 C   0  0  0  0  0  0  0  0  0  0  0  0
   22.3229   26.1626   31.4617 C   0  0  0  0  0  0  0  0  0  0  0  0
   23.7045   29.1169   34.0712 C   0  0  0  0  0  0  0  0  0  0  0  0
   22.8755   30.2420   33.4408 C   0  0  0  0  0  0  0  0  0  0  0  0
   25.1522   29.5556   34.3229 C   0  0  0  0  0  0  0  0  0  0  0  0
   24.9495   26.2620   36.5329 H   0  0  0  0  0  0  0  0  0  0  0  0
   31.0672   27.9416   36.6393 H   0  0  0  0  0  0  0  0  0  0  0  0
   32.8483   27.8885   34.9211 H   0  0  0  0  0  0  0  0  0  0  0  0
   32.2639   27.1263   32.6235 H   0  0  0  0  0  0  0  0  0  0  0  0
   30.0099   26.3033   32.1004 H   0  0  0  0  0  0  0  0  0  0  0  0
   26.6990   26.1100   32.1040 H   0  0  0  0  0  0  0  0  0  0  0  0
   28.1302   25.0419   32.0897 H   0  0  0  0  0  0  0  0  0  0  0  0
   20.6200   26.5523   37.2761 H   0  0  0  0  0  0  0  0  0  0  0  0
   18.8550   24.4381   36.0368 H   0  0  0  0  0  0  0  0  0  0  0  0
   18.0087   26.0035   35.5021 H   0  0  0  0  0  0  0  0  0  0  0  0
   19.9197   26.5321   33.2632 H   0  0  0  0  0  0  0  0  0  0  0  0
   21.0425   24.1572   32.6301 H   0  0  0  0  0  0  0  0  0  0  0  0
   21.7714   24.2232   34.2637 H   0  0  0  0  0  0  0  0  0  0  0  0
   24.4438   25.9261   31.0582 H   0  0  0  0  0  0  0  0  0  0  0  0
   23.5825   27.0543   29.9409 H   0  0  0  0  0  0  0  0  0  0  0  0
   21.5214   26.9036   31.2500 H   0  0  0  0  0  0  0  0  0  0  0  0
   22.1037   25.2426   30.8785 H   0  0  0  0  0  0  0  0  0  0  0  0
   23.2542   28.9285   35.0709 H   0  0  0  0  0  0  0  0  0  0  0  0
   21.8427   29.8820   33.2444 H   0  0  0  0  0  0  0  0  0  0  0  0
   22.8181   31.1067   34.1359 H   0  0  0  0  0  0  0  0  0  0  0  0
   23.3223   30.5892   32.4863 H   0  0  0  0  0  0  0  0  0  0  0  0
   25.6384   29.9301   33.4001 H   0  0  0  0  0  0  0  0  0  0  0  0
   25.7423   28.7068   34.7202 H   0  0  0  0  0  0  0  0  0  0  0  0
   25.1714   30.3716   35.0765 H   0  0  0  0  0  0  0  0  0  0  0  0
  1  2  1  0
  2  3  2  0
  2  4  1  0
  4  5  2  0
  5  6  1  0
  6  7  2  0
  7  8  1  0
  8  9  2  0
  9 10  1  0
 10 11  2  0
 11 12  1  0
 12 13  2  0
 13 14  1  0
  1 15  1  0
 15 16  2  0
 16 17  1  0
 17 18  2  0
 18 19  1  0
 19 20  1  0
 20 21  1  0
 21 22  1  0
 22 23  1  0
 23 24  2  0
 24 25  1  0
 25 26  1  0
 26 27  2  0
 26 28  1  0
 28 29  1  0
 25 30  1  0
 30 31  1  0
 30 32  1  0
 13  4  1  0
 24 15  1  0
 12  7  1  0
 21 18  1  0
 29 23  1  0
  1 33  1  0
  8 34  1  0
  9 35  1  0
 10 36  1  0
 11 37  1  0
 14 38  1  0
 14 39  1  0
 17 40  1  0
 19 41  1  0
 19 42  1  0
 21 43  1  0
 22 44  1  0
 22 45  1  0
 28 46  1  0
 28 47  1  0
 29 48  1  0
 29 49  1  0
 30 50  1  0
 31 51  1  0
 31 52  1  0
 31 53  1  0
 32 54  1  0
 32 55  1  0
 32 56  1  0
M  END
$$$$
confid_3
     RDKit          3D

 56 60  0  0  0  0  0  0  0  0999 V2000
   24.6900   26.1200   35.5300 N   0  0  0  0  0  0  0  0  0  0  0  0
   25.6600   25.6700   34.6600 C   0  0  0  0  0  0  0  0  0  0  0  0
   25.2400   25.0100   33.7200 O   0  0  0  0  0  0  0  0  0  0  0  0
   27.0300   26.2200   34.8800 C   0  0  0  0  0  0  0  0  0  0  0  0
   27.3500   26.7300   36.0700 N   0  0  0  0  0  0  0  0  0  0  0  0
   28.5700   27.1800   36.3300 N   0  0  0  0  0  0  0  0  0  0  0  0
   29.5300   27.1100   35.3900 C   0  0  0  0  0  0  0  0  0  0  0  0
   30.8300   27.5700   35.6500 C   0  0  0  0  0  0  0  0  0  0  0  0
   31.8500   27.5400   34.6900 C   0  0  0  0  0  0  0  0  0  0  0  0
   31.5100   27.1200   33.4000 C   0  0  0  0  0  0  0  0  0  0  0  0
   30.2200   26.6300   33.1100 C   0  0  0  0  0  0  0  0  0  0  0  0
   29.2400   26.6600   34.1000 C   0  0  0  0  0  0  0  0  0  0  0  0
   27.9300   26.2600   33.8100 C   0  0  0  0  0  0  0  0  0  0  0  0
   27.5200   25.7100   32.6100 N   0  0  0  0  0  0  0  0  0  0  0  0
   23.2732   26.0674   35.2788 C   0  0  0  0  0  0  0  0  0  0  0  0
   22.4643   26.0824   36.3021 N   0  0  0  0  0  0  0  0  0  0  0  0
   21.0373   26.0346   36.2020 C   0  0  0  0  0  0  0  0  0  0  0  0
   20.4622   25.0255   35.5646 C   0  0  0  0  0  0  0  0  0  0  0  0
   19.1347   24.5823   35.0254 C   0  0  0  0  0  0  0  0  0  0  0  0
   19.6306   23.4300   34.4219 O   0  0  0  0  0  0  0  0  0  0  0  0
   20.8872   23.7314   34.9399 C   0  0  0  0  0  0  0  0  0  0  0  0
   21.9832   23.8464   33.8578 C   0  0  0  0  0  0  0  0  0  0  0  0
   22.1187   25.2271   33.2432 C   0  0  0  0  0  0  0  0  0  0  0  0
   22.7490   26.2497   33.8879 C   0  0  0  0  0  0  0  0  0  0  0  0
   22.9580   27.5240   33.2094 N   0  0  0  0  0  0  0  0  0  0  0  0
   22.7313   27.5857   31.7800 C   0  0  0  0  0  0  0  0  0  0  0  0
   22.7828   28.6784   31.1562 O   0  0  0  0  0  0  0  0  0  0  0  0
   22.4423   26.3340   31.0209 C   0  0  0  0  0  0  0  0  0  0  0  0
   21.5302   25.4558   31.8684 C   0  0  0  0  0  0  0  0  0  0  0  0
   23.2768   28.7521   33.9802 C   0  0  0  0  0  0  0  0  0  0  0  0
   24.4903   29.5044   33.4067 C   0  0  0  0  0  0  0  0  0  0  0  0
   22.0447   29.6582   34.0997 C   0  0  0  0  0  0  0  0  0  0  0  0
   24.9698   26.4106   36.4946 H   0  0  0  0  0  0  0  0  0  0  0  0
   31.0674   27.9413   36.6392 H   0  0  0  0  0  0  0  0  0  0  0  0
   32.8483   27.8881   34.9211 H   0  0  0  0  0  0  0  0  0  0  0  0
   32.2640   27.1270   32.6236 H   0  0  0  0  0  0  0  0  0  0  0  0
   30.0099   26.3036   32.1004 H   0  0  0  0  0  0  0  0  0  0  0  0
   28.1282   25.0394   32.0907 H   0  0  0  0  0  0  0  0  0  0  0  0
   26.6926   26.1014   32.1063 H   0  0  0  0  0  0  0  0  0  0  0  0
   20.4327   26.8213   36.6396 H   0  0  0  0  0  0  0  0  0  0  0  0
   18.4086   24.3419   35.8324 H   0  0  0  0  0  0  0  0  0  0  0  0
   18.7340   25.2914   34.2701 H   0  0  0  0  0  0  0  0  0  0  0  0
   21.1694   22.9869   35.7173 H   0  0  0  0  0  0  0  0  0  0  0  0
   22.9590   23.5515   34.2990 H   0  0  0  0  0  0  0  0  0  0  0  0
   21.7810   23.0882   33.0707 H   0  0  0  0  0  0  0  0  0  0  0  0
   23.3976   25.8013   30.8068 H   0  0  0  0  0  0  0  0  0  0  0  0
   21.9384   26.5710   30.0535 H   0  0  0  0  0  0  0  0  0  0  0  0
   20.5396   25.9558   31.9830 H   0  0  0  0  0  0  0  0  0  0  0  0
   21.3629   24.4949   31.3363 H   0  0  0  0  0  0  0  0  0  0  0  0
   23.5642   28.4956   35.0149 H   0  0  0  0  0  0  0  0  0  0  0  0
   25.3076   28.7855   33.1587 H   0  0  0  0  0  0  0  0  0  0  0  0
   24.8711   30.2149   34.1693 H   0  0  0  0  0  0  0  0  0  0  0  0
   24.2273   30.1079   32.5107 H   0  0  0  0  0  0  0  0  0  0  0  0
   21.7362   30.0589   33.1112 H   0  0  0  0  0  0  0  0  0  0  0  0
   22.2621   30.5133   34.7729 H   0  0  0  0  0  0  0  0  0  0  0  0
   21.1999   29.0809   34.5339 H   0  0  0  0  0  0  0  0  0  0  0  0
  1  2  1  0
  2  3  2  0
  2  4  1  0
  4  5  2  0
  5  6  1  0
  6  7  2  0
  7  8  1  0
  8  9  2  0
  9 10  1  0
 10 11  2  0
 11 12  1  0
 12 13  2  0
 13 14  1  0
  1 15  1  0
 15 16  2  0
 16 17  1  0
 17 18  2  0
 18 19  1  0
 19 20  1  0
 20 21  1  0
 21 22  1  0
 22 23  1  0
 23 24  2  0
 24 25  1  0
 25 26  1  0
 26 27  2  0
 26 28  1  0
 28 29  1  0
 25 30  1  0
 30 31  1  0
 30 32  1  0
 13  4  1  0
 24 15  1  0
 12  7  1  0
 21 18  1  0
 29 23  1  0
  1 33  1  0
  8 34  1  0
  9 35  1  0
 10 36  1  0
 11 37  1  0
 14 38  1  0
 14 39  1  0
 17 40  1  0
 19 41  1  0
 19 42  1  0
 21 43  1  0
 22 44  1  0
 22 45  1  0
 28 46  1  0
 28 47  1  0
 29 48  1  0
 29 49  1  0
 30 50  1  0
 31 51  1  0
 31 52  1  0
 31 53  1  0
 32 54  1  0
 32 55  1  0
 32 56  1  0
M  END
$$$$
