confid_0
     RDKit          3D

 44 47  0  0  0  0  0  0  0  0999 V2000
   24.4800   26.1000   36.1300 N   0  0  0  0  0  0  0  0  0  0  0  0
   25.2500   26.2500   34.9900 C   0  0  0  0  0  0  0  0  0  0  0  0
   24.7400   25.7600   33.9900 O   0  0  0  0  0  0  0  0  0  0  0  0
   26.5900   26.8900   34.9600 C   0  0  0  0  0  0  0  0  0  0  0  0
   27.0600   27.2400   36.1600 N   0  0  0  0  0  0  0  0  0  0  0  0
   28.3000   27.7100   36.2400 N   0  0  0  0  0  0  0  0  0  0  0  0
   29.0500   27.9600   35.1500 C   0  0  0  0  0  0  0  0  0  0  0  0
   30.3400   28.4900   35.2600 C   0  0  0  0  0  0  0  0  0  0  0  0
   31.1100   28.8200   34.1400 C   0  0  0  0  0  0  0  0  0  0  0  0
   30.5200   28.6700   32.8800 C   0  0  0  0  0  0  0  0  0  0  0  0
   29.2900   28.0200   32.7700 C   0  0  0  0  0  0  0  0  0  0  0  0
   28.5200   27.7100   33.8900 C   0  0  0  0  0  0  0  0  0  0  0  0
   27.2700   27.0800   33.7600 C   0  0  0  0  0  0  0  0  0  0  0  0
   26.7500   26.8800   32.4900 N   0  0  0  0  0  0  0  0  0  0  0  0
   23.0421   25.9716   36.1316 C   0  0  0  0  0  0  0  0  0  0  0  0
   22.3219   26.4086   35.0496 N   0  0  0  0  0  0  0  0  0  0  0  0
   20.9624   26.3515   35.0025 C   0  0  0  0  0  0  0  0  0  0  0  0
   20.2834   25.8408   36.0983 C   0  0  0  0  0  0  0  0  0  0  0  0
   18.9189   25.7153   36.2379 O   0  0  0  0  0  0  0  0  0  0  0  0
   18.6045   25.1631   37.5157 C   0  0  0  0  0  0  0  0  0  0  0  0
   17.8053   23.8973   37.3471 C   0  0  0  0  0  0  0  0  0  0  0  0
   16.4961   23.7289   38.0562 C   0  0  0  0  0  0  0  0  0  0  0  0
   18.2232   23.0041   36.6251 O   0  0  0  0  0  0  0  0  0  0  0  0
   19.9731   24.9044   38.2081 C   0  0  0  0  0  0  0  0  0  0  0  0
   20.9551   25.3949   37.1970 C   0  0  0  0  0  0  0  0  0  0  0  0
   22.3577   25.4359   37.2574 C   0  0  0  0  0  0  0  0  0  0  0  0
   23.0970   24.9486   38.4751 C   0  0  0  0  0  0  0  0  0  0  0  0
   24.9704   26.1422   37.0503 H   0  0  0  0  0  0  0  0  0  0  0  0
   30.7582   28.6623   36.2441 H   0  0  0  0  0  0  0  0  0  0  0  0
   32.0994   29.2455   34.2469 H   0  0  0  0  0  0  0  0  0  0  0  0
   31.0716   28.9442   31.9898 H   0  0  0  0  0  0  0  0  0  0  0  0
   28.9437   27.8129   31.7669 H   0  0  0  0  0  0  0  0  0  0  0  0
   26.3616   25.9529   32.2110 H   0  0  0  0  0  0  0  0  0  0  0  0
   26.7154   27.6567   31.7927 H   0  0  0  0  0  0  0  0  0  0  0  0
   20.4279   26.7054   34.1314 H   0  0  0  0  0  0  0  0  0  0  0  0
   18.0260   25.9121   38.1002 H   0  0  0  0  0  0  0  0  0  0  0  0
   16.0542   22.7339   37.8345 H   0  0  0  0  0  0  0  0  0  0  0  0
   16.6527   23.8150   39.1518 H   0  0  0  0  0  0  0  0  0  0  0  0
   15.7888   24.5174   37.7246 H   0  0  0  0  0  0  0  0  0  0  0  0
   20.1478   23.8269   38.4199 H   0  0  0  0  0  0  0  0  0  0  0  0
   20.0596   25.4969   39.1442 H   0  0  0  0  0  0  0  0  0  0  0  0
   23.9216   24.2697   38.1719 H   0  0  0  0  0  0  0  0  0  0  0  0
   22.4365   24.3823   39.1629 H   0  0  0  0  0  0  0  0  0  0  0  0
   23.5158   25.8156   39.0271 H   0  0  0  0  0  0  0  0  0  0  0  0
  1  2  1  0
  2  3  2  0
  2  4  1  0
  4  5  2  0
  5  6  1  0
  6  7  2  0
  7  8  1  0
  8  9  2  0
  9 10  1  0
 10 11  2  0
 11 12  1  0
 12 13  2  0
 13 14  1  0
  1 15  1  0
 15 16  2  0
 16 17  1  0
 17 18  2  0
 18 19  1  0
 19 20  1  0
 20 21  1  0
 21 22  1  0
 21 23  2  0
 20 24  1  0
 24 25  1  0
 25 26  2  0
 26 27  1  0
 13  4  1  0
 26 15  1  0
 12  7  1  0
 25 18  1  0
  1 28  1  0
  8 29  1  0
  9 30  1  0
 10 31  1  0
 11 32  1  0
 14 33  1  0
 14 34  1  0
 17 35  1  0
 20 36  1  0
 22 37  1  0
 22 38  1  0
 22 39  1  0
 24 40  1  0
 24 41  1  0
 27 42  1  0
 27 43  1  0
 27 44  1  0
M  END
$$$$
confid_1
     RDKit          3D

 44 47  0  0  0  0  0  0  0  0999 V2000
   24.4800   26.1000   36.1300 N   0  0  0  0  0  0  0  0  0  0  0  0
   25.2500   26.2500   34.9900 C   0  0  0  0  0  0  0  0  0  0  0  0
   24.7400   25.7600   33.9900 O   0  0  0  0  0  0  0  0  0  0  0  0
   26.5900   26.8900   34.9600 C   0  0  0  0  0  0  0  0  0  0  0  0
   27.0600   27.2400   36.1600 N   0  0  0  0  0  0  0  0  0  0  0  0
   28.3000   27.7100   36.2400 N   0  0  0  0  0  0  0  0  0  0  0  0
   29.0500   27.9600   35.1500 C   0  0  0  0  0  0  0  0  0  0  0  0
   30.3400   28.4900   35.2600 C   0  0  0  0  0  0  0  0  0  0  0  0
   31.1100   28.8200   34.1400 C   0  0  0  0  0  0  0  0  0  0  0  0
   30.5200   28.6700   32.8800 C   0  0  0  0  0  0  0  0  0  0  0  0
   29.2900   28.0200   32.7700 C   0  0  0  0  0  0  0  0  0  0  0  0
   28.5200   27.7100   33.8900 C   0  0  0  0  0  0  0  0  0  0  0  0
   27.2700   27.0800   33.7600 C   0  0  0  0  0  0  0  0  0  0  0  0
   26.7500   26.8800   32.4900 N   0  0  0  0  0  0  0  0  0  0  0  0
   23.4979   25.0602   36.3269 C   0  0  0  0  0  0  0  0  0  0  0  0
   23.5702   23.9100   35.5838 N   0  0  0  0  0  0  0  0  0  0  0  0
   22.6994   22.8762   35.7465 C   0  0  0  0  0  0  0  0  0  0  0  0
   21.7090   22.9909   36.7103 C   0  0  0  0  0  0  0  0  0  0  0  0
   20.7516   22.0521   37.0248 O   0  0  0  0  0  0  0  0  0  0  0  0
   19.9230   22.5302   38.0840 C   0  0  0  0  0  0  0  0  0  0  0  0
   18.4814   22.5511   37.6397 C   0  0  0  0  0  0  0  0  0  0  0  0
   17.4031   21.9125   38.4637 C   0  0  0  0  0  0  0  0  0  0  0  0
   18.1806   23.1001   36.5902 O   0  0  0  0  0  0  0  0  0  0  0  0
   20.4511   23.9552   38.4163 C   0  0  0  0  0  0  0  0  0  0  0  0
   21.5977   24.1135   37.4744 C   0  0  0  0  0  0  0  0  0  0  0  0
   22.4806   25.1937   37.3119 C   0  0  0  0  0  0  0  0  0  0  0  0
   22.3598   26.4302   38.1623 C   0  0  0  0  0  0  0  0  0  0  0  0
   24.6645   26.7595   36.9178 H   0  0  0  0  0  0  0  0  0  0  0  0
   30.7580   28.6629   36.2441 H   0  0  0  0  0  0  0  0  0  0  0  0
   32.0983   29.2479   34.2470 H   0  0  0  0  0  0  0  0  0  0  0  0
   31.0669   28.9543   31.9901 H   0  0  0  0  0  0  0  0  0  0  0  0
   28.9258   27.8587   31.7656 H   0  0  0  0  0  0  0  0  0  0  0  0
   25.7673   27.1503   32.2658 H   0  0  0  0  0  0  0  0  0  0  0  0
   27.2969   26.3787   31.7554 H   0  0  0  0  0  0  0  0  0  0  0  0
   22.7868   21.9842   35.1411 H   0  0  0  0  0  0  0  0  0  0  0  0
   20.0564   21.8693   38.9679 H   0  0  0  0  0  0  0  0  0  0  0  0
   16.6464   22.6764   38.7396 H   0  0  0  0  0  0  0  0  0  0  0  0
   17.8130   21.4690   39.3950 H   0  0  0  0  0  0  0  0  0  0  0  0
   16.9113   21.1108   37.8740 H   0  0  0  0  0  0  0  0  0  0  0  0
   19.6917   24.7462   38.2309 H   0  0  0  0  0  0  0  0  0  0  0  0
   20.8090   24.0080   39.4671 H   0  0  0  0  0  0  0  0  0  0  0  0
   22.3878   27.3360   37.5207 H   0  0  0  0  0  0  0  0  0  0  0  0
   23.1988   26.4651   38.8883 H   0  0  0  0  0  0  0  0  0  0  0  0
   21.4065   26.4534   38.7288 H   0  0  0  0  0  0  0  0  0  0  0  0
  1  2  1  0
  2  3  2  0
  2  4  1  0
  4  5  2  0
  5  6  1  0
  6  7  2  0
  7  8  1  0
  8  9  2  0
  9 10  1  0
 10 11  2  0
 11 12  1  0
 12 13  2  0
 13 14  1  0
  1 15  1  0
 15 16  2  0
 16 17  1  0
 17 18  2  0
 18 19  1  0
 19 20  1  0
 20 21  1  0
 21 22  1  0
 21 23  2  0
 20 24  1  0
 24 25  1  0
 25 26  2  0
 26 27  1  0
 13  4  1  0
 26 15  1  0
 12  7  1  0
 25 18  1  0
  1 28  1  0
  8 29  1  0
  9 30  1  0
 10 31  1  0
 11 32  1  0
 14 33  1  0
 14 34  1  0
 17 35  1  0
 20 36  1  0
 22 37  1  0
 22 38  1  0
 22 39  1  0
 24 40  1  0
 24 41  1  0
 27 42  1  0
 27 43  1  0
 27 44  1  0
M  END
$$$$
confid_2
     RDKit          3D

 44 47  0  0  0  0  0  0  0  0999 V2000
   24.4800   26.1000   36.1300 N   0  0  0  0  0  0  0  0  0  0  0  0
   25.2500   26.2500   34.9900 C   0  0  0  0  0  0  0  0  0  0  0  0
   24.7400   25.7600   33.9900 O   0  0  0  0  0  0  0  0  0  0  0  0
   26.5900   26.8900   34.9600 C   0  0  0  0  0  0  0  0  0  0  0  0
   27.0600   27.2400   36.1600 N   0  0  0  0  0  0  0  0  0  0  0  0
   28.3000   27.7100   36.2400 N   0  0  0  0  0  0  0  0  0  0  0  0
   29.0500   27.9600   35.1500 C   0  0  0  0  0  0  0  0  0  0  0  0
   30.3400   28.4900   35.2600 C   0  0  0  0  0  0  0  0  0  0  0  0
   31.1100   28.8200   34.1400 C   0  0  0  0  0  0  0  0  0  0  0  0
   30.5200   28.6700   32.8800 C   0  0  0  0  0  0  0  0  0  0  0  0
   29.2900   28.0200   32.7700 C   0  0  0  0  0  0  0  0  0  0  0  0
   28.5200   27.7100   33.8900 C   0  0  0  0  0  0  0  0  0  0  0  0
   27.2700   27.0800   33.7600 C   0  0  0  0  0  0  0  0  0  0  0  0
   26.7500   26.8800   32.4900 N   0  0  0  0  0  0  0  0  0  0  0  0
   23.5081   25.0517   36.3312 C   0  0  0  0  0  0  0  0  0  0  0  0
   23.5944   23.8976   35.5960 N   0  0  0  0  0  0  0  0  0  0  0  0
   22.7352   22.8552   35.7647 C   0  0  0  0  0  0  0  0  0  0  0  0
   21.7436   22.9647   36.7276 C   0  0  0  0  0  0  0  0  0  0  0  0
   20.7946   22.0184   37.0450 O   0  0  0  0  0  0  0  0  0  0  0  0
   19.9610   22.4950   38.1008 C   0  0  0  0  0  0  0  0  0  0  0  0
   18.5153   22.4855   37.6707 C   0  0  0  0  0  0  0  0  0  0  0  0
   18.0757   23.1283   36.3873 C   0  0  0  0  0  0  0  0  0  0  0  0
   17.6786   21.9604   38.3890 O   0  0  0  0  0  0  0  0  0  0  0  0
   20.4715   23.9280   38.4247 C   0  0  0  0  0  0  0  0  0  0  0  0
   21.6187   24.0913   37.4843 C   0  0  0  0  0  0  0  0  0  0  0  0
   22.4881   25.1807   37.3138 C   0  0  0  0  0  0  0  0  0  0  0  0
   22.3514   26.4224   38.1543 C   0  0  0  0  0  0  0  0  0  0  0  0
   24.6587   26.7645   36.9149 H   0  0  0  0  0  0  0  0  0  0  0  0
   30.7580   28.6629   36.2441 H   0  0  0  0  0  0  0  0  0  0  0  0
   32.0983   29.2480   34.2471 H   0  0  0  0  0  0  0  0  0  0  0  0
   31.0669   28.9543   31.9901 H   0  0  0  0  0  0  0  0  0  0  0  0
   28.9258   27.8587   31.7656 H   0  0  0  0  0  0  0  0  0  0  0  0
   27.2969   26.3787   31.7553 H   0  0  0  0  0  0  0  0  0  0  0  0
   25.7672   27.1502   32.2658 H   0  0  0  0  0  0  0  0  0  0  0  0
   22.8320   21.9610   35.1639 H   0  0  0  0  0  0  0  0  0  0  0  0
   20.1002   21.8401   38.9893 H   0  0  0  0  0  0  0  0  0  0  0  0
   18.9348   23.5829   35.8512 H   0  0  0  0  0  0  0  0  0  0  0  0
   17.6087   22.3651   35.7305 H   0  0  0  0  0  0  0  0  0  0  0  0
   17.3336   23.9243   36.6057 H   0  0  0  0  0  0  0  0  0  0  0  0
   19.7037   24.7084   38.2312 H   0  0  0  0  0  0  0  0  0  0  0  0
   20.8261   23.9922   39.4759 H   0  0  0  0  0  0  0  0  0  0  0  0
   22.3766   27.3238   37.5065 H   0  0  0  0  0  0  0  0  0  0  0  0
   23.1845   26.4696   38.8861 H   0  0  0  0  0  0  0  0  0  0  0  0
   21.3936   26.4419   38.7132 H   0  0  0  0  0  0  0  0  0  0  0  0
  1  2  1  0
  2  3  2  0
  2  4  1  0
  4  5  2  0
  5  6  1  0
  6  7  2  0
  7  8  1  0
  8  9  2  0
  9 10  1  0
 10 11  2  0
 11 12  1  0
 12 13  2  0
 13 14  1  0
  1 15  1  0
 15 16  2  0
 16 17  1  0
 17 18  2  0
 18 19  1  0
 19 20  1  0
 20 21  1  0
 21 22  1  0
 21 23  2  0
 20 24  1  0
 24 25  1  0
 25 26  2  0
 26 27  1  0
 13  4  1  0
 26 15  1  0
 12  7  1  0
 25 18  1  0
  1 28  1  0
  8 29  1  0
  9 30  1  0
 10 31  1  0
 11 32  1  0
 14 33  1  0
 14 34  1  0
 17 35  1  0
 20 36  1  0
 22 37  1  0
 22 38  1  0
 22 39  1  0
 24 40  1  0
 24 41  1  0
 27 42  1  0
 27 43  1  0
 27 44  1  0
M  END
$$$$
confid_3
     RDKit          3D

 44 47  0  0  0  0  0  0  0  0999 V2000
   24.4800   26.1000   36.1300 N   0  0  0  0  0  0  0  0  0  0  0  0
   25.2500   26.2500   34.9900 C   0  0  0  0  0  0  0  0  0  0  0  0
   24.7400   25.7600   33.9900 O   0  0  0  0  0  0  0  0  0  0  0  0
   26.5900   26.8900   34.9600 C   0  0  0  0  0  0  0  0  0  0  0  0
   27.0600   27.2400   36.1600 N   0  0  0  0  0  0  0  0  0  0  0  0
   28.3000   27.7100   36.2400 N   0  0  0  0  0  0  0  0  0  0  0  0
   29.0500   27.9600   35.1500 C   0  0  0  0  0  0  0  0  0  0  0  0
   30.3400   28.4900   35.2600 C   0  0  0  0  0  0  0  0  0  0  0  0
   31.1100   28.8200   34.1400 C   0  0  0  0  0  0  0  0  0  0  0  0
   30.5200   28.6700   32.8800 C   0  0  0  0  0  0  0  0  0  0  0  0
   29.2900   28.0200   32.7700 C   0  0  0  0  0  0  0  0  0  0  0  0
   28.5200   27.7100   33.8900 C   0  0  0  0  0  0  0  0  0  0  0  0
   27.2700   27.0800   33.7600 C   0  0  0  0  0  0  0  0  0  0  0  0
   26.7500   26.8800   32.4900 N   0  0  0  0  0  0  0  0  0  0  0  0
   23.4847   25.0718   36.3200 C   0  0  0  0  0  0  0  0  0  0  0  0
   23.5556   23.9162   35.5853 N   0  0  0  0  0  0  0  0  0  0  0  0
   22.6699   22.8937   35.7404 C   0  0  0  0  0  0  0  0  0  0  0  0
   21.6636   23.0273   36.6848 C   0  0  0  0  0  0  0  0  0  0  0  0
   20.6892   22.1025   36.9890 O   0  0  0  0  0  0  0  0  0  0  0  0
   19.8350   22.6072   38.0152 C   0  0  0  0  0  0  0  0  0  0  0  0
   19.8534   21.6781   39.2035 C   0  0  0  0  0  0  0  0  0  0  0  0
   18.5808   21.1799   39.8218 C   0  0  0  0  0  0  0  0  0  0  0  0
   20.9227   21.3263   39.6790 O   0  0  0  0  0  0  0  0  0  0  0  0
   20.3948   24.0147   38.3695 C   0  0  0  0  0  0  0  0  0  0  0  0
   21.5547   24.1553   37.4413 C   0  0  0  0  0  0  0  0  0  0  0  0
   22.4544   25.2229   37.2883 C   0  0  0  0  0  0  0  0  0  0  0  0
   22.3377   26.4645   38.1321 C   0  0  0  0  0  0  0  0  0  0  0  0
   24.6670   26.7565   36.9196 H   0  0  0  0  0  0  0  0  0  0  0  0
   30.7582   28.6623   36.2441 H   0  0  0  0  0  0  0  0  0  0  0  0
   32.0994   29.2455   34.2469 H   0  0  0  0  0  0  0  0  0  0  0  0
   31.0715   28.9443   31.9898 H   0  0  0  0  0  0  0  0  0  0  0  0
   28.9437   27.8129   31.7669 H   0  0  0  0  0  0  0  0  0  0  0  0
   26.3615   25.9529   32.2111 H   0  0  0  0  0  0  0  0  0  0  0  0
   26.7159   27.6565   31.7924 H   0  0  0  0  0  0  0  0  0  0  0  0
   22.7563   21.9969   35.1422 H   0  0  0  0  0  0  0  0  0  0  0  0
   18.8060   22.7081   37.6063 H   0  0  0  0  0  0  0  0  0  0  0  0
   18.5474   20.0717   39.7615 H   0  0  0  0  0  0  0  0  0  0  0  0
   17.6897   21.5908   39.3034 H   0  0  0  0  0  0  0  0  0  0  0  0
   18.5422   21.4870   40.8878 H   0  0  0  0  0  0  0  0  0  0  0  0
   19.6379   24.8009   38.1587 H   0  0  0  0  0  0  0  0  0  0  0  0
   20.7389   24.0883   39.4245 H   0  0  0  0  0  0  0  0  0  0  0  0
   21.3782   26.5007   38.6875 H   0  0  0  0  0  0  0  0  0  0  0  0
   22.3837   27.3673   37.4872 H   0  0  0  0  0  0  0  0  0  0  0  0
   23.1689   26.4923   38.8674 H   0  0  0  0  0  0  0  0  0  0  0  0
  1  2  1  0
  2  3  2  0
  2  4  1  0
  4  5  2  0
  5  6  1  0
  6  7  2  0
  7  8  1  0
  8  9  2  0
  9 10  1  0
 10 11  2  0
 11 12  1  0
 12 13  2  0
 13 14  1  0
  1 15  1  0
 15 16  2  0
 16 17  1  0
 17 18  2  0
 18 19  1  0
 19 20  1  0
 20 21  1  0
 21 22  1  0
 21 23  2  0
 20 24  1  0
 24 25  1  0
 25 26  2  0
 26 27  1  0
 13  4  1  0
 26 15  1  0
 12  7  1  0
 25 18  1  0
  1 28  1  0
  8 29  1  0
  9 30  1  0
 10 31  1  0
 11 32  1  0
 14 33  1  0
 14 34  1  0
 17 35  1  0
 20 36  1  0
 22 37  1  0
 22 38  1  0
 22 39  1  0
 24 40  1  0
 24 41  1  0
 27 42  1  0
 27 43  1  0
 27 44  1  0
M  END
$$$$
confid_4
     RDKit          3D

 44 47  0  0  0  0  0  0  0  0999 V2000
   24.4800   26.1000   36.1300 N   0  0  0  0  0  0  0  0  0  0  0  0
   25.2500   26.2500   34.9900 C   0  0  0  0  0  0  0  0  0  0  0  0
   24.7400   25.7600   33.9900 O   0  0  0  0  0  0  0  0  0  0  0  0
   26.5900   26.8900   34.9600 C   0  0  0  0  0  0  0  0  0  0  0  0
   27.0600   27.2400   36.1600 N   0  0  0  0  0  0  0  0  0  0  0  0
   28.3000   27.7100   36.2400 N   0  0  0  0  0  0  0  0  0  0  0  0
   29.0500   27.9600   35.1500 C   0  0  0  0  0  0  0  0  0  0  0  0
   30.3400   28.4900   35.2600 C   0  0  0  0  0  0  0  0  0  0  0  0
   31.1100   28.8200   34.1400 C   0  0  0  0  0  0  0  0  0  0  0  0
   30.5200   28.6700   32.8800 C   0  0  0  0  0  0  0  0  0  0  0  0
   29.2900   28.0200   32.7700 C   0  0  0  0  0  0  0  0  0  0  0  0
   28.5200   27.7100   33.8900 C   0  0  0  0  0  0  0  0  0  0  0  0
   27.2700   27.0800   33.7600 C   0  0  0  0  0  0  0  0  0  0  0  0
   26.7500   26.8800   32.4900 N   0  0  0  0  0  0  0  0  0  0  0  0
   23.0428   25.9649   36.1324 C   0  0  0  0  0  0  0  0  0  0  0  0
   22.3196   26.3984   35.0509 N   0  0  0  0  0  0  0  0  0  0  0  0
   20.9604   26.3331   35.0044 C   0  0  0  0  0  0  0  0  0  0  0  0
   20.2850   25.8180   36.1003 C   0  0  0  0  0  0  0  0  0  0  0  0
   18.9216   25.6832   36.2401 O   0  0  0  0  0  0  0  0  0  0  0  0
   18.6118   25.1190   37.5142 C   0  0  0  0  0  0  0  0  0  0  0  0
   17.8310   23.8395   37.3496 C   0  0  0  0  0  0  0  0  0  0  0  0
   18.1845   22.8516   36.2756 C   0  0  0  0  0  0  0  0  0  0  0  0
   16.9278   23.5823   38.1308 O   0  0  0  0  0  0  0  0  0  0  0  0
   19.9815   24.8794   38.2102 C   0  0  0  0  0  0  0  0  0  0  0  0
   20.9599   25.3753   37.1983 C   0  0  0  0  0  0  0  0  0  0  0  0
   22.3621   25.4239   37.2577 C   0  0  0  0  0  0  0  0  0  0  0  0
   23.1053   24.9373   38.4732 C   0  0  0  0  0  0  0  0  0  0  0  0
   24.9704   26.1439   37.0502 H   0  0  0  0  0  0  0  0  0  0  0  0
   30.7582   28.6623   36.2441 H   0  0  0  0  0  0  0  0  0  0  0  0
   32.0994   29.2455   34.2469 H   0  0  0  0  0  0  0  0  0  0  0  0
   31.0715   28.9442   31.9898 H   0  0  0  0  0  0  0  0  0  0  0  0
   28.9437   27.8129   31.7669 H   0  0  0  0  0  0  0  0  0  0  0  0
   26.7154   27.6567   31.7927 H   0  0  0  0  0  0  0  0  0  0  0  0
   26.3613   25.9530   32.2111 H   0  0  0  0  0  0  0  0  0  0  0  0
   20.4233   26.6852   34.1343 H   0  0  0  0  0  0  0  0  0  0  0  0
   18.0157   25.8560   38.0965 H   0  0  0  0  0  0  0  0  0  0  0  0
   18.0713   23.3234   35.2775 H   0  0  0  0  0  0  0  0  0  0  0  0
   17.5178   21.9646   36.3247 H   0  0  0  0  0  0  0  0  0  0  0  0
   19.2345   22.5163   36.4036 H   0  0  0  0  0  0  0  0  0  0  0  0
   20.0601   25.4781   39.1429 H   0  0  0  0  0  0  0  0  0  0  0  0
   20.1672   23.8052   38.4294 H   0  0  0  0  0  0  0  0  0  0  0  0
   22.4471   24.3742   39.1659 H   0  0  0  0  0  0  0  0  0  0  0  0
   23.9279   24.2570   38.1680 H   0  0  0  0  0  0  0  0  0  0  0  0
   23.5280   25.8046   39.0216 H   0  0  0  0  0  0  0  0  0  0  0  0
  1  2  1  0
  2  3  2  0
  2  4  1  0
  4  5  2  0
  5  6  1  0
  6  7  2  0
  7  8  1  0
  8  9  2  0
  9 10  1  0
 10 11  2  0
 11 12  1  0
 12 13  2  0
 13 14  1  0
  1 15  1  0
 15 16  2  0
 16 17  1  0
 17 18  2  0
 18 19  1  0
 19 20  1  0
 20 21  1  0
 21 22  1  0
 21 23  2  0
 20 24  1  0
 24 25  1  0
 25 26  2  0
 26 27  1  0
 13  4  1  0
 26 15  1  0
 12  7  1  0
 25 18  1  0
  1 28  1  0
  8 29  1  0
  9 30  1  0
 10 31  1  0
 11 32  1  0
 14 33  1  0
 14 34  1  0
 17 35  1  0
 20 36  1  0
 22 37  1  0
 22 38  1  0
 22 39  1  0
 24 40  1  0
 24 41  1  0
 27 42  1  0
 27 43  1  0
 27 44  1  0
M  END
$$$$
confid_5
     RDKit          3D

 44 47  0  0  0  0  0  0  0  0999 V2000
   24.4800   26.1000   36.1300 N   0  0  0  0  0  0  0  0  0  0  0  0
   25.2500   26.2500   34.9900 C   0  0  0  0  0  0  0  0  0  0  0  0
   24.7400   25.7600   33.9900 O   0  0  0  0  0  0  0  0  0  0  0  0
   26.5900   26.8900   34.9600 C   0  0  0  0  0  0  0  0  0  0  0  0
   27.0600   27.2400   36.1600 N   0  0  0  0  0  0  0  0  0  0  0  0
   28.3000   27.7100   36.2400 N   0  0  0  0  0  0  0  0  0  0  0  0
   29.0500   27.9600   35.1500 C   0  0  0  0  0  0  0  0  0  0  0  0
   30.3400   28.4900   35.2600 C   0  0  0  0  0  0  0  0  0  0  0  0
   31.1100   28.8200   34.1400 C   0  0  0  0  0  0  0  0  0  0  0  0
   30.5200   28.6700   32.8800 C   0  0  0  0  0  0  0  0  0  0  0  0
   29.2900   28.0200   32.7700 C   0  0  0  0  0  0  0  0  0  0  0  0
   28.5200   27.7100   33.8900 C   0  0  0  0  0  0  0  0  0  0  0  0
   27.2700   27.0800   33.7600 C   0  0  0  0  0  0  0  0  0  0  0  0
   26.7500   26.8800   32.4900 N   0  0  0  0  0  0  0  0  0  0  0  0
   23.4895   25.0676   36.3235 C   0  0  0  0  0  0  0  0  0  0  0  0
   23.5576   23.9154   35.5830 N   0  0  0  0  0  0  0  0  0  0  0  0
   22.6792   22.8877   35.7441 C   0  0  0  0  0  0  0  0  0  0  0  0
   21.6858   23.0109   36.7037 C   0  0  0  0  0  0  0  0  0  0  0  0
   20.7213   22.0794   37.0164 O   0  0  0  0  0  0  0  0  0  0  0  0
   19.8904   22.5659   38.0717 C   0  0  0  0  0  0  0  0  0  0  0  0
   18.4390   22.5906   37.6586 C   0  0  0  0  0  0  0  0  0  0  0  0
   18.0257   22.3404   36.2376 C   0  0  0  0  0  0  0  0  0  0  0  0
   17.5835   22.8205   38.5001 O   0  0  0  0  0  0  0  0  0  0  0  0
   20.4233   23.9897   38.3983 C   0  0  0  0  0  0  0  0  0  0  0  0
   21.5783   24.1359   37.4647 C   0  0  0  0  0  0  0  0  0  0  0  0
   22.4687   25.2101   37.3033 C   0  0  0  0  0  0  0  0  0  0  0  0
   22.3506   26.4505   38.1486 C   0  0  0  0  0  0  0  0  0  0  0  0
   24.6697   26.7546   36.9210 H   0  0  0  0  0  0  0  0  0  0  0  0
   30.7580   28.6628   36.2441 H   0  0  0  0  0  0  0  0  0  0  0  0
   32.0983   29.2479   34.2470 H   0  0  0  0  0  0  0  0  0  0  0  0
   31.0669   28.9543   31.9901 H   0  0  0  0  0  0  0  0  0  0  0  0
   28.9257   27.8587   31.7656 H   0  0  0  0  0  0  0  0  0  0  0  0
   27.2968   26.3781   31.7556 H   0  0  0  0  0  0  0  0  0  0  0  0
   25.7673   27.1502   32.2658 H   0  0  0  0  0  0  0  0  0  0  0  0
   22.7625   21.9941   35.1404 H   0  0  0  0  0  0  0  0  0  0  0  0
   20.0105   21.9006   38.9546 H   0  0  0  0  0  0  0  0  0  0  0  0
   18.3136   21.3105   35.9399 H   0  0  0  0  0  0  0  0  0  0  0  0
   16.9260   22.4514   36.1238 H   0  0  0  0  0  0  0  0  0  0  0  0
   18.5281   23.0707   35.5690 H   0  0  0  0  0  0  0  0  0  0  0  0
   20.7705   24.0497   39.4522 H   0  0  0  0  0  0  0  0  0  0  0  0
   19.6701   24.7825   38.1952 H   0  0  0  0  0  0  0  0  0  0  0  0
   22.3896   27.3536   37.5039 H   0  0  0  0  0  0  0  0  0  0  0  0
   21.3933   26.4824   38.7077 H   0  0  0  0  0  0  0  0  0  0  0  0
   23.1842   26.4824   38.8807 H   0  0  0  0  0  0  0  0  0  0  0  0
  1  2  1  0
  2  3  2  0
  2  4  1  0
  4  5  2  0
  5  6  1  0
  6  7  2  0
  7  8  1  0
  8  9  2  0
  9 10  1  0
 10 11  2  0
 11 12  1  0
 12 13  2  0
 13 14  1  0
  1 15  1  0
 15 16  2  0
 16 17  1  0
 17 18  2  0
 18 19  1  0
 19 20  1  0
 20 21  1  0
 21 22  1  0
 21 23  2  0
 20 24  1  0
 24 25  1  0
 25 26  2  0
 26 27  1  0
 13  4  1  0
 26 15  1  0
 12  7  1  0
 25 18  1  0
  1 28  1  0
  8 29  1  0
  9 30  1  0
 10 31  1  0
 11 32  1  0
 14 33  1  0
 14 34  1  0
 17 35  1  0
 20 36  1  0
 22 37  1  0
 22 38  1  0
 22 39  1  0
 24 40  1  0
 24 41  1  0
 27 42  1  0
 27 43  1  0
 27 44  1  0
M  END
$$$$
confid_6
     RDKit          3D

 44 47  0  0  0  0  0  0  0  0999 V2000
   24.4800   26.1000   36.1300 N   0  0  0  0  0  0  0  0  0  0  0  0
   25.2500   26.2500   34.9900 C   0  0  0  0  0  0  0  0  0  0  0  0
   24.7400   25.7600   33.9900 O   0  0  0  0  0  0  0  0  0  0  0  0
   26.5900   26.8900   34.9600 C   0  0  0  0  0  0  0  0  0  0  0  0
   27.0600   27.2400   36.1600 N   0  0  0  0  0  0  0  0  0  0  0  0
   28.3000   27.7100   36.2400 N   0  0  0  0  0  0  0  0  0  0  0  0
   29.0500   27.9600   35.1500 C   0  0  0  0  0  0  0  0  0  0  0  0
   30.3400   28.4900   35.2600 C   0  0  0  0  0  0  0  0  0  0  0  0
   31.1100   28.8200   34.1400 C   0  0  0  0  0  0  0  0  0  0  0  0
   30.5200   28.6700   32.8800 C   0  0  0  0  0  0  0  0  0  0  0  0
   29.2900   28.0200   32.7700 C   0  0  0  0  0  0  0  0  0  0  0  0
   28.5200   27.7100   33.8900 C   0  0  0  0  0  0  0  0  0  0  0  0
   27.2700   27.0800   33.7600 C   0  0  0  0  0  0  0  0  0  0  0  0
   26.7500   26.8800   32.4900 N   0  0  0  0  0  0  0  0  0  0  0  0
   23.0436   25.9566   36.1309 C   0  0  0  0  0  0  0  0  0  0  0  0
   22.3186   26.3928   35.0517 N   0  0  0  0  0  0  0  0  0  0  0  0
   20.9598   26.3207   35.0041 C   0  0  0  0  0  0  0  0  0  0  0  0
   20.2865   25.7951   36.0965 C   0  0  0  0  0  0  0  0  0  0  0  0
   18.9235   25.6548   36.2361 O   0  0  0  0  0  0  0  0  0  0  0  0
   18.6158   25.0725   37.5025 C   0  0  0  0  0  0  0  0  0  0  0  0
   17.7225   25.9981   38.2907 C   0  0  0  0  0  0  0  0  0  0  0  0
   16.4558   25.5048   38.9243 C   0  0  0  0  0  0  0  0  0  0  0  0
   18.0340   27.1725   38.4211 O   0  0  0  0  0  0  0  0  0  0  0  0
   19.9864   24.8508   38.2039 C   0  0  0  0  0  0  0  0  0  0  0  0
   20.9631   25.3516   37.1930 C   0  0  0  0  0  0  0  0  0  0  0  0
   22.3651   25.4068   37.2533 C   0  0  0  0  0  0  0  0  0  0  0  0
   23.1096   24.9186   38.4673 C   0  0  0  0  0  0  0  0  0  0  0  0
   24.9687   26.1493   37.0509 H   0  0  0  0  0  0  0  0  0  0  0  0
   30.7580   28.6629   36.2441 H   0  0  0  0  0  0  0  0  0  0  0  0
   32.0983   29.2480   34.2470 H   0  0  0  0  0  0  0  0  0  0  0  0
   31.0669   28.9543   31.9901 H   0  0  0  0  0  0  0  0  0  0  0  0
   28.9258   27.8587   31.7656 H   0  0  0  0  0  0  0  0  0  0  0  0
   25.7672   27.1501   32.2659 H   0  0  0  0  0  0  0  0  0  0  0  0
   27.2969   26.3788   31.7553 H   0  0  0  0  0  0  0  0  0  0  0  0
   20.4213   26.6741   34.1352 H   0  0  0  0  0  0  0  0  0  0  0  0
   18.1205   24.0915   37.3341 H   0  0  0  0  0  0  0  0  0  0  0  0
   16.3114   24.4182   38.7497 H   0  0  0  0  0  0  0  0  0  0  0  0
   15.5895   26.0524   38.4974 H   0  0  0  0  0  0  0  0  0  0  0  0
   16.4952   25.6846   40.0192 H   0  0  0  0  0  0  0  0  0  0  0  0
   20.0849   25.4279   39.1495 H   0  0  0  0  0  0  0  0  0  0  0  0
   20.1557   23.7695   38.3969 H   0  0  0  0  0  0  0  0  0  0  0  0
   23.9454   24.2559   38.1590 H   0  0  0  0  0  0  0  0  0  0  0  0
   22.4564   24.3342   39.1472 H   0  0  0  0  0  0  0  0  0  0  0  0
   23.5135   25.7863   39.0292 H   0  0  0  0  0  0  0  0  0  0  0  0
  1  2  1  0
  2  3  2  0
  2  4  1  0
  4  5  2  0
  5  6  1  0
  6  7  2  0
  7  8  1  0
  8  9  2  0
  9 10  1  0
 10 11  2  0
 11 12  1  0
 12 13  2  0
 13 14  1  0
  1 15  1  0
 15 16  2  0
 16 17  1  0
 17 18  2  0
 18 19  1  0
 19 20  1  0
 20 21  1  0
 21 22  1  0
 21 23  2  0
 20 24  1  0
 24 25  1  0
 25 26  2  0
 26 27  1  0
 13  4  1  0
 26 15  1  0
 12  7  1  0
 25 18  1  0
  1 28  1  0
  8 29  1  0
  9 30  1  0
 10 31  1  0
 11 32  1  0
 14 33  1  0
 14 34  1  0
 17 35  1  0
 20 36  1  0
 22 37  1  0
 22 38  1  0
 22 39  1  0
 24 40  1  0
 24 41  1  0
 27 42  1  0
 27 43  1  0
 27 44  1  0
M  END
$$$$
confid_7
     RDKit          3D

 44 47  0  0  0  0  0  0  0  0999 V2000
   24.4800   26.1000   36.1300 N   0  0  0  0  0  0  0  0  0  0  0  0
   25.2500   26.2500   34.9900 C   0  0  0  0  0  0  0  0  0  0  0  0
   24.7400   25.7600   33.9900 O   0  0  0  0  0  0  0  0  0  0  0  0
   26.5900   26.8900   34.9600 C   0  0  0  0  0  0  0  0  0  0  0  0
   27.0600   27.2400   36.1600 N   0  0  0  0  0  0  0  0  0  0  0  0
   28.3000   27.7100   36.2400 N   0  0  0  0  0  0  0  0  0  0  0  0
   29.0500   27.9600   35.1500 C   0  0  0  0  0  0  0  0  0  0  0  0
   30.3400   28.4900   35.2600 C   0  0  0  0  0  0  0  0  0  0  0  0
   31.1100   28.8200   34.1400 C   0  0  0  0  0  0  0  0  0  0  0  0
   30.5200   28.6700   32.8800 C   0  0  0  0  0  0  0  0  0  0  0  0
   29.2900   28.0200   32.7700 C   0  0  0  0  0  0  0  0  0  0  0  0
   28.5200   27.7100   33.8900 C   0  0  0  0  0  0  0  0  0  0  0  0
   27.2700   27.0800   33.7600 C   0  0  0  0  0  0  0  0  0  0  0  0
   26.7500   26.8800   32.4900 N   0  0  0  0  0  0  0  0  0  0  0  0
   23.4398   25.1128   36.2925 C   0  0  0  0  0  0  0  0  0  0  0  0
   23.5012   23.9417   35.5825 N   0  0  0  0  0  0  0  0  0  0  0  0
   22.5714   22.9558   35.7143 C   0  0  0  0  0  0  0  0  0  0  0  0
   21.5288   23.1447   36.6087 C   0  0  0  0  0  0  0  0  0  0  0  0
   20.5047   22.2648   36.8798 O   0  0  0  0  0  0  0  0  0  0  0  0
   19.6309   22.8147   37.8651 C   0  0  0  0  0  0  0  0  0  0  0  0
   18.2284   22.9025   37.3166 C   0  0  0  0  0  0  0  0  0  0  0  0
   17.0584   22.3611   38.0827 C   0  0  0  0  0  0  0  0  0  0  0  0
   18.0370   23.4250   36.2286 O   0  0  0  0  0  0  0  0  0  0  0  0
   20.2136   24.2168   38.2037 C   0  0  0  0  0  0  0  0  0  0  0  0
   21.4272   24.2908   37.3385 C   0  0  0  0  0  0  0  0  0  0  0  0
   22.3731   25.3209   37.2090 C   0  0  0  0  0  0  0  0  0  0  0  0
   22.2670   26.5818   38.0242 C   0  0  0  0  0  0  0  0  0  0  0  0
   24.6841   26.7347   36.9336 H   0  0  0  0  0  0  0  0  0  0  0  0
   30.7580   28.6629   36.2441 H   0  0  0  0  0  0  0  0  0  0  0  0
   32.0983   29.2479   34.2470 H   0  0  0  0  0  0  0  0  0  0  0  0
   31.0668   28.9544   31.9901 H   0  0  0  0  0  0  0  0  0  0  0  0
   28.9259   27.8586   31.7656 H   0  0  0  0  0  0  0  0  0  0  0  0
   27.2969   26.3786   31.7554 H   0  0  0  0  0  0  0  0  0  0  0  0
   25.7672   27.1501   32.2659 H   0  0  0  0  0  0  0  0  0  0  0  0
   22.6509   22.0454   35.1361 H   0  0  0  0  0  0  0  0  0  0  0  0
   19.6623   22.1698   38.7704 H   0  0  0  0  0  0  0  0  0  0  0  0
   16.3329   23.1793   38.2758 H   0  0  0  0  0  0  0  0  0  0  0  0
   16.5615   21.5662   37.4888 H   0  0  0  0  0  0  0  0  0  0  0  0
   17.3742   21.9351   39.0576 H   0  0  0  0  0  0  0  0  0  0  0  0
   19.5127   25.0423   37.9509 H   0  0  0  0  0  0  0  0  0  0  0  0
   20.5036   24.2741   39.2749 H   0  0  0  0  0  0  0  0  0  0  0  0
   22.3948   27.4687   37.3692 H   0  0  0  0  0  0  0  0  0  0  0  0
   23.0539   26.5840   38.8066 H   0  0  0  0  0  0  0  0  0  0  0  0
   21.2794   26.6731   38.5202 H   0  0  0  0  0  0  0  0  0  0  0  0
  1  2  1  0
  2  3  2  0
  2  4  1  0
  4  5  2  0
  5  6  1  0
  6  7  2  0
  7  8  1  0
  8  9  2  0
  9 10  1  0
 10 11  2  0
 11 12  1  0
 12 13  2  0
 13 14  1  0
  1 15  1  0
 15 16  2  0
 16 17  1  0
 17 18  2  0
 18 19  1  0
 19 20  1  0
 20 21  1  0
 21 22  1  0
 21 23  2  0
 20 24  1  0
 24 25  1  0
 25 26  2  0
 26 27  1  0
 13  4  1  0
 26 15  1  0
 12  7  1  0
 25 18  1  0
  1 28  1  0
  8 29  1  0
  9 30  1  0
 10 31  1  0
 11 32  1  0
 14 33  1  0
 14 34  1  0
 17 35  1  0
 20 36  1  0
 22 37  1  0
 22 38  1  0
 22 39  1  0
 24 40  1  0
 24 41  1  0
 27 42  1  0
 27 43  1  0
 27 44  1  0
M  END
$$$$
confid_8
     RDKit          3D

 44 47  0  0  0  0  0  0  0  0999 V2000
   24.4800   26.1000   36.1300 N   0  0  0  0  0  0  0  0  0  0  0  0
   25.2500   26.2500   34.9900 C   0  0  0  0  0  0  0  0  0  0  0  0
   24.7400   25.7600   33.9900 O   0  0  0  0  0  0  0  0  0  0  0  0
   26.5900   26.8900   34.9600 C   0  0  0  0  0  0  0  0  0  0  0  0
   27.0600   27.2400   36.1600 N   0  0  0  0  0  0  0  0  0  0  0  0
   28.3000   27.7100   36.2400 N   0  0  0  0  0  0  0  0  0  0  0  0
   29.0500   27.9600   35.1500 C   0  0  0  0  0  0  0  0  0  0  0  0
   30.3400   28.4900   35.2600 C   0  0  0  0  0  0  0  0  0  0  0  0
   31.1100   28.8200   34.1400 C   0  0  0  0  0  0  0  0  0  0  0  0
   30.5200   28.6700   32.8800 C   0  0  0  0  0  0  0  0  0  0  0  0
   29.2900   28.0200   32.7700 C   0  0  0  0  0  0  0  0  0  0  0  0
   28.5200   27.7100   33.8900 C   0  0  0  0  0  0  0  0  0  0  0  0
   27.2700   27.0800   33.7600 C   0  0  0  0  0  0  0  0  0  0  0  0
   26.7500   26.8800   32.4900 N   0  0  0  0  0  0  0  0  0  0  0  0
   23.4693   25.0854   36.3121 C   0  0  0  0  0  0  0  0  0  0  0  0
   23.5288   23.9297   35.5764 N   0  0  0  0  0  0  0  0  0  0  0  0
   22.6287   22.9191   35.7254 C   0  0  0  0  0  0  0  0  0  0  0  0
   21.6202   23.0649   36.6658 C   0  0  0  0  0  0  0  0  0  0  0  0
   20.6335   22.1522   36.9650 O   0  0  0  0  0  0  0  0  0  0  0  0
   19.7777   22.6691   37.9851 C   0  0  0  0  0  0  0  0  0  0  0  0
   19.7371   21.7515   39.1823 C   0  0  0  0  0  0  0  0  0  0  0  0
   20.7129   20.6216   39.3350 C   0  0  0  0  0  0  0  0  0  0  0  0
   18.8953   21.9385   40.0477 O   0  0  0  0  0  0  0  0  0  0  0  0
   20.3572   24.0659   38.3473 C   0  0  0  0  0  0  0  0  0  0  0  0
   21.5213   24.1937   37.4223 C   0  0  0  0  0  0  0  0  0  0  0  0
   22.4354   25.2495   37.2745 C   0  0  0  0  0  0  0  0  0  0  0  0
   22.3288   26.4924   38.1173 C   0  0  0  0  0  0  0  0  0  0  0  0
   24.6755   26.7474   36.9252 H   0  0  0  0  0  0  0  0  0  0  0  0
   30.7582   28.6623   36.2441 H   0  0  0  0  0  0  0  0  0  0  0  0
   32.0994   29.2455   34.2469 H   0  0  0  0  0  0  0  0  0  0  0  0
   31.0715   28.9442   31.9899 H   0  0  0  0  0  0  0  0  0  0  0  0
   28.9437   27.8129   31.7669 H   0  0  0  0  0  0  0  0  0  0  0  0
   26.7156   27.6566   31.7926 H   0  0  0  0  0  0  0  0  0  0  0  0
   26.3617   25.9528   32.2110 H   0  0  0  0  0  0  0  0  0  0  0  0
   22.7063   22.0218   35.1264 H   0  0  0  0  0  0  0  0  0  0  0  0
   18.7525   22.7762   37.5676 H   0  0  0  0  0  0  0  0  0  0  0  0
   21.7491   21.0195   39.3144 H   0  0  0  0  0  0  0  0  0  0  0  0
   20.5532   20.0927   40.2988 H   0  0  0  0  0  0  0  0  0  0  0  0
   20.5802   19.8970   38.5046 H   0  0  0  0  0  0  0  0  0  0  0  0
   19.6120   24.8641   38.1416 H   0  0  0  0  0  0  0  0  0  0  0  0
   20.7045   24.1252   39.4023 H   0  0  0  0  0  0  0  0  0  0  0  0
   23.1480   26.5045   38.8663 H   0  0  0  0  0  0  0  0  0  0  0  0
   21.3607   26.5469   38.6559 H   0  0  0  0  0  0  0  0  0  0  0  0
   22.4027   27.3948   37.4742 H   0  0  0  0  0  0  0  0  0  0  0  0
  1  2  1  0
  2  3  2  0
  2  4  1  0
  4  5  2  0
  5  6  1  0
  6  7  2  0
  7  8  1  0
  8  9  2  0
  9 10  1  0
 10 11  2  0
 11 12  1  0
 12 13  2  0
 13 14  1  0
  1 15  1  0
 15 16  2  0
 16 17  1  0
 17 18  2  0
 18 19  1  0
 19 20  1  0
 20 21  1  0
 21 22  1  0
 21 23  2  0
 20 24  1  0
 24 25  1  0
 25 26  2  0
 26 27  1  0
 13  4  1  0
 26 15  1  0
 12  7  1  0
 25 18  1  0
  1 28  1  0
  8 29  1  0
  9 30  1  0
 10 31  1  0
 11 32  1  0
 14 33  1  0
 14 34  1  0
 17 35  1  0
 20 36  1  0
 22 37  1  0
 22 38  1  0
 22 39  1  0
 24 40  1  0
 24 41  1  0
 27 42  1  0
 27 43  1  0
 27 44  1  0
M  END
$$$$
