confid_0
     RDKit          3D

 49 52  0  0  0  0  0  0  0  0999 V2000
   24.6900   26.1200   35.5300 N   0  0  0  0  0  0  0  0  0  0  0  0
   25.6600   25.6700   34.6600 C   0  0  0  0  0  0  0  0  0  0  0  0
   25.2400   25.0100   33.7200 O   0  0  0  0  0  0  0  0  0  0  0  0
   27.0300   26.2200   34.8800 C   0  0  0  0  0  0  0  0  0  0  0  0
   27.3500   26.7300   36.0700 N   0  0  0  0  0  0  0  0  0  0  0  0
   28.5700   27.1800   36.3300 N   0  0  0  0  0  0  0  0  0  0  0  0
   29.5300   27.1100   35.3900 C   0  0  0  0  0  0  0  0  0  0  0  0
   30.8300   27.5700   35.6500 C   0  0  0  0  0  0  0  0  0  0  0  0
   31.8500   27.5400   34.6900 C   0  0  0  0  0  0  0  0  0  0  0  0
   31.5100   27.1200   33.4000 C   0  0  0  0  0  0  0  0  0  0  0  0
   30.2200   26.6300   33.1100 C   0  0  0  0  0  0  0  0  0  0  0  0
   29.2400   26.6600   34.1000 C   0  0  0  0  0  0  0  0  0  0  0  0
   27.9300   26.2600   33.8100 C   0  0  0  0  0  0  0  0  0  0  0  0
   27.5200   25.7100   32.6100 N   0  0  0  0  0  0  0  0  0  0  0  0
   23.4991   25.3794   35.8674 C   0  0  0  0  0  0  0  0  0  0  0  0
   23.4252   24.1056   35.5478 N   0  0  0  0  0  0  0  0  0  0  0  0
   22.3656   23.1641   35.8288 C   0  0  0  0  0  0  0  0  0  0  0  0
   21.0665   23.5077   35.8385 C   0  0  0  0  0  0  0  0  0  0  0  0
   20.7035   24.8739   35.4036 C   0  0  0  0  0  0  0  0  0  0  0  0
   21.0497   25.6705   36.5655 N   0  0  0  0  0  0  0  0  0  0  0  0
   20.3289   25.3604   37.8239 C   0  0  0  0  0  0  0  0  0  0  0  0
   19.5480   24.0052   37.7513 C   0  0  0  0  0  0  0  0  0  0  0  0
   20.2377   23.0018   36.9010 N   0  0  0  0  0  0  0  0  0  0  0  0
   20.0347   21.5531   37.0799 C   0  0  0  0  0  0  0  0  0  0  0  0
   20.6784   21.0701   38.3839 C   0  0  0  0  0  0  0  0  0  0  0  0
   18.5446   21.1998   37.0327 C   0  0  0  0  0  0  0  0  0  0  0  0
   22.4276   26.0785   36.6511 C   0  0  0  0  0  0  0  0  0  0  0  0
   22.7360   27.0465   37.3969 O   0  0  0  0  0  0  0  0  0  0  0  0
   24.8160   27.0612   35.9674 H   0  0  0  0  0  0  0  0  0  0  0  0
   31.0672   27.9417   36.6393 H   0  0  0  0  0  0  0  0  0  0  0  0
   32.8483   27.8885   34.9211 H   0  0  0  0  0  0  0  0  0  0  0  0
   32.2640   27.1262   32.6235 H   0  0  0  0  0  0  0  0  0  0  0  0
   30.0101   26.3033   32.1004 H   0  0  0  0  0  0  0  0  0  0  0  0
   28.1315   25.0434   32.0893 H   0  0  0  0  0  0  0  0  0  0  0  0
   26.6937   26.1024   32.1057 H   0  0  0  0  0  0  0  0  0  0  0  0
   22.6582   22.1943   36.2076 H   0  0  0  0  0  0  0  0  0  0  0  0
   21.2413   25.1998   34.4846 H   0  0  0  0  0  0  0  0  0  0  0  0
   19.6140   24.9458   35.1932 H   0  0  0  0  0  0  0  0  0  0  0  0
   19.6271   26.1880   38.0591 H   0  0  0  0  0  0  0  0  0  0  0  0
   21.0535   25.2843   38.6650 H   0  0  0  0  0  0  0  0  0  0  0  0
   18.5404   24.1977   37.3239 H   0  0  0  0  0  0  0  0  0  0  0  0
   19.4025   23.6167   38.7804 H   0  0  0  0  0  0  0  0  0  0  0  0
   20.5234   21.0051   36.2431 H   0  0  0  0  0  0  0  0  0  0  0  0
   20.6426   19.9610   38.4350 H   0  0  0  0  0  0  0  0  0  0  0  0
   21.7417   21.3872   38.4240 H   0  0  0  0  0  0  0  0  0  0  0  0
   20.1500   21.4787   39.2702 H   0  0  0  0  0  0  0  0  0  0  0  0
   18.0015   21.6463   37.8925 H   0  0  0  0  0  0  0  0  0  0  0  0
   18.4136   20.0971   37.0647 H   0  0  0  0  0  0  0  0  0  0  0  0
   18.0977   21.5791   36.0892 H   0  0  0  0  0  0  0  0  0  0  0  0
  1  2  1  0
  2  3  2  0
  2  4  1  0
  4  5  2  0
  5  6  1  0
  6  7  2  0
  7  8  1  0
  8  9  2  0
  9 10  1  0
 10 11  2  0
 11 12  1  0
 12 13  2  0
 13 14  1  0
  1 15  1  0
 15 16  2  0
 16 17  1  0
 17 18  2  0
 18 19  1  0
 19 20  1  0
 20 21  1  0
 21 22  1  0
 22 23  1  0
 23 24  1  0
 24 25  1  0
 24 26  1  0
 20 27  1  0
 27 28  2  0
 13  4  1  0
 27 15  1  0
 12  7  1  0
 23 18  1  0
  1 29  1  0
  8 30  1  0
  9 31  1  0
 10 32  1  0
 11 33  1  0
 14 34  1  0
 14 35  1  0
 17 36  1  0
 19 37  1  0
 19 38  1  0
 21 39  1  0
 21 40  1  0
 22 41  1  0
 22 42  1  0
 24 43  1  0
 25 44  1  0
 25 45  1  0
 25 46  1  0
 26 47  1  0
 26 48  1  0
 26 49  1  0
M  END
$$$$
confid_1
     RDKit          3D

 49 52  0  0  0  0  0  0  0  0999 V2000
   24.6900   26.1200   35.5300 N   0  0  0  0  0  0  0  0  0  0  0  0
   25.6600   25.6700   34.6600 C   0  0  0  0  0  0  0  0  0  0  0  0
   25.2400   25.0100   33.7200 O   0  0  0  0  0  0  0  0  0  0  0  0
   27.0300   26.2200   34.8800 C   0  0  0  0  0  0  0  0  0  0  0  0
   27.3500   26.7300   36.0700 N   0  0  0  0  0  0  0  0  0  0  0  0
   28.5700   27.1800   36.3300 N   0  0  0  0  0  0  0  0  0  0  0  0
   29.5300   27.1100   35.3900 C   0  0  0  0  0  0  0  0  0  0  0  0
   30.8300   27.5700   35.6500 C   0  0  0  0  0  0  0  0  0  0  0  0
   31.8500   27.5400   34.6900 C   0  0  0  0  0  0  0  0  0  0  0  0
   31.5100   27.1200   33.4000 C   0  0  0  0  0  0  0  0  0  0  0  0
   30.2200   26.6300   33.1100 C   0  0  0  0  0  0  0  0  0  0  0  0
   29.2400   26.6600   34.1000 C   0  0  0  0  0  0  0  0  0  0  0  0
   27.9300   26.2600   33.8100 C   0  0  0  0  0  0  0  0  0  0  0  0
   27.5200   25.7100   32.6100 N   0  0  0  0  0  0  0  0  0  0  0  0
   23.3638   26.5220   35.1326 C   0  0  0  0  0  0  0  0  0  0  0  0
   23.1185   26.7735   33.8654 N   0  0  0  0  0  0  0  0  0  0  0  0
   21.8905   27.2631   33.2810 C   0  0  0  0  0  0  0  0  0  0  0  0
   20.6785   26.8957   33.7253 C   0  0  0  0  0  0  0  0  0  0  0  0
   20.5958   25.8197   34.7460 C   0  0  0  0  0  0  0  0  0  0  0  0
   20.9444   26.5064   35.9803 N   0  0  0  0  0  0  0  0  0  0  0  0
   19.9544   27.5134   36.4056 C   0  0  0  0  0  0  0  0  0  0  0  0
   19.7489   28.5717   35.2825 C   0  0  0  0  0  0  0  0  0  0  0  0
   19.7186   27.9408   33.9419 N   0  0  0  0  0  0  0  0  0  0  0  0
   18.6492   28.2268   32.9737 C   0  0  0  0  0  0  0  0  0  0  0  0
   19.2342   28.6618   31.6268 C   0  0  0  0  0  0  0  0  0  0  0  0
   17.7350   27.0079   32.8106 C   0  0  0  0  0  0  0  0  0  0  0  0
   22.3461   26.7560   36.2077 C   0  0  0  0  0  0  0  0  0  0  0  0
   22.7272   27.1600   37.3405 O   0  0  0  0  0  0  0  0  0  0  0  0
   24.9242   26.1532   36.5477 H   0  0  0  0  0  0  0  0  0  0  0  0
   31.0670   27.9415   36.6394 H   0  0  0  0  0  0  0  0  0  0  0  0
   32.8484   27.8871   34.9216 H   0  0  0  0  0  0  0  0  0  0  0  0
   32.2656   27.1209   32.6251 H   0  0  0  0  0  0  0  0  0  0  0  0
   30.0112   26.2785   32.1079 H   0  0  0  0  0  0  0  0  0  0  0  0
   27.6953   26.2241   31.7185 H   0  0  0  0  0  0  0  0  0  0  0  0
   27.3404   24.6833   32.5413 H   0  0  0  0  0  0  0  0  0  0  0  0
   21.9668   28.1154   32.6195 H   0  0  0  0  0  0  0  0  0  0  0  0
   21.2742   24.9621   34.5339 H   0  0  0  0  0  0  0  0  0  0  0  0
   19.5594   25.4196   34.8011 H   0  0  0  0  0  0  0  0  0  0  0  0
   18.9859   27.0049   36.6023 H   0  0  0  0  0  0  0  0  0  0  0  0
   20.2697   28.0087   37.3499 H   0  0  0  0  0  0  0  0  0  0  0  0
   18.8172   29.1412   35.4814 H   0  0  0  0  0  0  0  0  0  0  0  0
   20.5977   29.2867   35.3156 H   0  0  0  0  0  0  0  0  0  0  0  0
   18.0225   29.0678   33.3459 H   0  0  0  0  0  0  0  0  0  0  0  0
   18.4171   28.9946   30.9504 H   0  0  0  0  0  0  0  0  0  0  0  0
   19.9298   29.5164   31.7764 H   0  0  0  0  0  0  0  0  0  0  0  0
   19.7818   27.8241   31.1438 H   0  0  0  0  0  0  0  0  0  0  0  0
   16.8897   27.2527   32.1323 H   0  0  0  0  0  0  0  0  0  0  0  0
   18.2975   26.1456   32.3910 H   0  0  0  0  0  0  0  0  0  0  0  0
   17.3185   26.7175   33.7987 H   0  0  0  0  0  0  0  0  0  0  0  0
  1  2  1  0
  2  3  2  0
  2  4  1  0
  4  5  2  0
  5  6  1  0
  6  7  2  0
  7  8  1  0
  8  9  2  0
  9 10  1  0
 10 11  2  0
 11 12  1  0
 12 13  2  0
 13 14  1  0
  1 15  1  0
 15 16  2  0
 16 17  1  0
 17 18  2  0
 18 19  1  0
 19 20  1  0
 20 21  1  0
 21 22  1  0
 22 23  1  0
 23 24  1  0
 24 25  1  0
 24 26  1  0
 20 27  1  0
 27 28  2  0
 13  4  1  0
 27 15  1  0
 12  7  1  0
 23 18  1  0
  1 29  1  0
  8 30  1  0
  9 31  1  0
 10 32  1  0
 11 33  1  0
 14 34  1  0
 14 35  1  0
 17 36  1  0
 19 37  1  0
 19 38  1  0
 21 39  1  0
 21 40  1  0
 22 41  1  0
 22 42  1  0
 24 43  1  0
 25 44  1  0
 25 45  1  0
 25 46  1  0
 26 47  1  0
 26 48  1  0
 26 49  1  0
M  END
$$$$
