confid_0
     RDKit          3D

 41 44  0  0  0  0  0  0  0  0999 V2000
   24.5700   26.8800   35.5900 N   0  0  0  0  0  0  0  0  0  0  0  0
   25.5000   26.4000   34.6900 C   0  0  0  0  0  0  0  0  0  0  0  0
   25.1700   25.5200   33.9100 O   0  0  0  0  0  0  0  0  0  0  0  0
   26.8400   27.0200   34.7400 C   0  0  0  0  0  0  0  0  0  0  0  0
   27.3800   27.2800   35.9400 N   0  0  0  0  0  0  0  0  0  0  0  0
   28.6200   27.7400   36.0300 N   0  0  0  0  0  0  0  0  0  0  0  0
   29.3800   28.0000   34.9600 C   0  0  0  0  0  0  0  0  0  0  0  0
   30.6700   28.5000   35.1300 C   0  0  0  0  0  0  0  0  0  0  0  0
   31.5400   28.6100   34.0300 C   0  0  0  0  0  0  0  0  0  0  0  0
   31.0900   28.2200   32.7700 C   0  0  0  0  0  0  0  0  0  0  0  0
   29.8000   27.7000   32.6000 C   0  0  0  0  0  0  0  0  0  0  0  0
   28.9600   27.5500   33.7100 C   0  0  0  0  0  0  0  0  0  0  0  0
   27.6600   27.0300   33.5900 C   0  0  0  0  0  0  0  0  0  0  0  0
   27.1600   26.7400   32.3400 N   0  0  0  0  0  0  0  0  0  0  0  0
   23.3252   26.2252   35.9086 C   0  0  0  0  0  0  0  0  0  0  0  0
   23.0872   24.9505   35.4967 N   0  0  0  0  0  0  0  0  0  0  0  0
   21.9370   24.2949   35.7958 C   0  0  0  0  0  0  0  0  0  0  0  0
   20.9311   24.9245   36.5440 C   0  0  0  0  0  0  0  0  0  0  0  0
   19.7318   24.1460   36.9124 C   0  0  0  0  0  0  0  0  0  0  0  0
   19.8665   22.9544   37.3026 O   0  0  0  0  0  0  0  0  0  0  0  0
   18.3520   24.7120   36.7746 C   0  0  0  0  0  0  0  0  0  0  0  0
   18.0809   25.7976   37.8116 C   0  0  0  0  0  0  0  0  0  0  0  0
   18.8519   27.0769   37.4999 C   0  0  0  0  0  0  0  0  0  0  0  0
   20.2375   26.9388   37.7960 O   0  0  0  0  0  0  0  0  0  0  0  0
   21.1517   26.2460   36.9925 C   0  0  0  0  0  0  0  0  0  0  0  0
   22.3580   26.8852   36.6811 C   0  0  0  0  0  0  0  0  0  0  0  0
   22.5776   28.1499   37.1236 F   0  0  0  0  0  0  0  0  0  0  0  0
   24.7767   27.7851   36.0718 H   0  0  0  0  0  0  0  0  0  0  0  0
   31.0178   28.7888   36.1143 H   0  0  0  0  0  0  0  0  0  0  0  0
   32.5416   28.9991   34.1593 H   0  0  0  0  0  0  0  0  0  0  0  0
   31.7454   28.3188   31.9142 H   0  0  0  0  0  0  0  0  0  0  0  0
   29.5013   27.4243   31.5992 H   0  0  0  0  0  0  0  0  0  0  0  0
   27.7097   26.1832   31.6493 H   0  0  0  0  0  0  0  0  0  0  0  0
   26.1711   26.9655   32.0920 H   0  0  0  0  0  0  0  0  0  0  0  0
   21.8076   23.2779   35.4473 H   0  0  0  0  0  0  0  0  0  0  0  0
   18.2136   25.1108   35.7460 H   0  0  0  0  0  0  0  0  0  0  0  0
   17.6061   23.8986   36.9123 H   0  0  0  0  0  0  0  0  0  0  0  0
   16.9942   26.0318   37.7956 H   0  0  0  0  0  0  0  0  0  0  0  0
   18.3340   25.4354   38.8325 H   0  0  0  0  0  0  0  0  0  0  0  0
   18.4461   27.8911   38.1366 H   0  0  0  0  0  0  0  0  0  0  0  0
   18.7137   27.3834   36.4397 H   0  0  0  0  0  0  0  0  0  0  0  0
  1  2  1  0
  2  3  2  0
  2  4  1  0
  4  5  2  0
  5  6  1  0
  6  7  2  0
  7  8  1  0
  8  9  2  0
  9 10  1  0
 10 11  2  0
 11 12  1  0
 12 13  2  0
 13 14  1  0
  1 15  1  0
 15 16  2  0
 16 17  1  0
 17 18  2  0
 18 19  1  0
 19 20  2  0
 19 21  1  0
 21 22  1  0
 22 23  1  0
 23 24  1  0
 24 25  1  0
 25 26  2  0
 26 27  1  0
 13  4  1  0
 26 15  1  0
 12  7  1  0
 25 18  1  0
  1 28  1  0
  8 29  1  0
  9 30  1  0
 10 31  1  0
 11 32  1  0
 14 33  1  0
 14 34  1  0
 17 35  1  0
 21 36  1  0
 21 37  1  0
 22 38  1  0
 22 39  1  0
 23 40  1  0
 23 41  1  0
M  END
$$$$
confid_1
     RDKit          3D

 41 44  0  0  0  0  0  0  0  0999 V2000
   24.5700   26.8800   35.5900 N   0  0  0  0  0  0  0  0  0  0  0  0
   25.5000   26.4000   34.6900 C   0  0  0  0  0  0  0  0  0  0  0  0
   25.1700   25.5200   33.9100 O   0  0  0  0  0  0  0  0  0  0  0  0
   26.8400   27.0200   34.7400 C   0  0  0  0  0  0  0  0  0  0  0  0
   27.3800   27.2800   35.9400 N   0  0  0  0  0  0  0  0  0  0  0  0
   28.6200   27.7400   36.0300 N   0  0  0  0  0  0  0  0  0  0  0  0
   29.3800   28.0000   34.9600 C   0  0  0  0  0  0  0  0  0  0  0  0
   30.6700   28.5000   35.1300 C   0  0  0  0  0  0  0  0  0  0  0  0
   31.5400   28.6100   34.0300 C   0  0  0  0  0  0  0  0  0  0  0  0
   31.0900   28.2200   32.7700 C   0  0  0  0  0  0  0  0  0  0  0  0
   29.8000   27.7000   32.6000 C   0  0  0  0  0  0  0  0  0  0  0  0
   28.9600   27.5500   33.7100 C   0  0  0  0  0  0  0  0  0  0  0  0
   27.6600   27.0300   33.5900 C   0  0  0  0  0  0  0  0  0  0  0  0
   27.1600   26.7400   32.3400 N   0  0  0  0  0  0  0  0  0  0  0  0
   23.3257   26.2249   35.9100 C   0  0  0  0  0  0  0  0  0  0  0  0
   23.0833   24.9535   35.4905 N   0  0  0  0  0  0  0  0  0  0  0  0
   21.9294   24.3014   35.7826 C   0  0  0  0  0  0  0  0  0  0  0  0
   20.9379   24.9194   36.5592 C   0  0  0  0  0  0  0  0  0  0  0  0
   19.6668   24.2025   36.7841 C   0  0  0  0  0  0  0  0  0  0  0  0
   19.1285   23.5870   35.8241 O   0  0  0  0  0  0  0  0  0  0  0  0
   19.0308   24.1320   38.1382 C   0  0  0  0  0  0  0  0  0  0  0  0
   18.4548   25.4796   38.5623 C   0  0  0  0  0  0  0  0  0  0  0  0
   19.5563   26.4757   38.9124 C   0  0  0  0  0  0  0  0  0  0  0  0
   20.2130   26.9617   37.7466 O   0  0  0  0  0  0  0  0  0  0  0  0
   21.1628   26.2376   37.0151 C   0  0  0  0  0  0  0  0  0  0  0  0
   22.3572   26.8867   36.6793 C   0  0  0  0  0  0  0  0  0  0  0  0
   22.5678   28.1595   37.1024 F   0  0  0  0  0  0  0  0  0  0  0  0
   24.7773   27.7845   36.0727 H   0  0  0  0  0  0  0  0  0  0  0  0
   31.0178   28.7888   36.1143 H   0  0  0  0  0  0  0  0  0  0  0  0
   32.5416   28.9991   34.1593 H   0  0  0  0  0  0  0  0  0  0  0  0
   31.7454   28.3188   31.9142 H   0  0  0  0  0  0  0  0  0  0  0  0
   29.5013   27.4243   31.5992 H   0  0  0  0  0  0  0  0  0  0  0  0
   26.1711   26.9655   32.0920 H   0  0  0  0  0  0  0  0  0  0  0  0
   27.7097   26.1832   31.6493 H   0  0  0  0  0  0  0  0  0  0  0  0
   21.7871   23.2950   35.4094 H   0  0  0  0  0  0  0  0  0  0  0  0
   18.2056   23.3866   38.1178 H   0  0  0  0  0  0  0  0  0  0  0  0
   19.7757   23.7739   38.8818 H   0  0  0  0  0  0  0  0  0  0  0  0
   17.8265   25.3216   39.4657 H   0  0  0  0  0  0  0  0  0  0  0  0
   17.8011   25.8944   37.7636 H   0  0  0  0  0  0  0  0  0  0  0  0
   20.2962   26.0299   39.6131 H   0  0  0  0  0  0  0  0  0  0  0  0
   19.0906   27.3419   39.4281 H   0  0  0  0  0  0  0  0  0  0  0  0
  1  2  1  0
  2  3  2  0
  2  4  1  0
  4  5  2  0
  5  6  1  0
  6  7  2  0
  7  8  1  0
  8  9  2  0
  9 10  1  0
 10 11  2  0
 11 12  1  0
 12 13  2  0
 13 14  1  0
  1 15  1  0
 15 16  2  0
 16 17  1  0
 17 18  2  0
 18 19  1  0
 19 20  2  0
 19 21  1  0
 21 22  1  0
 22 23  1  0
 23 24  1  0
 24 25  1  0
 25 26  2  0
 26 27  1  0
 13  4  1  0
 26 15  1  0
 12  7  1  0
 25 18  1  0
  1 28  1  0
  8 29  1  0
  9 30  1  0
 10 31  1  0
 11 32  1  0
 14 33  1  0
 14 34  1  0
 17 35  1  0
 21 36  1  0
 21 37  1  0
 22 38  1  0
 22 39  1  0
 23 40  1  0
 23 41  1  0
M  END
$$$$
confid_2
     RDKit          3D

 41 44  0  0  0  0  0  0  0  0999 V2000
   24.5700   26.8800   35.5900 N   0  0  0  0  0  0  0  0  0  0  0  0
   25.5000   26.4000   34.6900 C   0  0  0  0  0  0  0  0  0  0  0  0
   25.1700   25.5200   33.9100 O   0  0  0  0  0  0  0  0  0  0  0  0
   26.8400   27.0200   34.7400 C   0  0  0  0  0  0  0  0  0  0  0  0
   27.3800   27.2800   35.9400 N   0  0  0  0  0  0  0  0  0  0  0  0
   28.6200   27.7400   36.0300 N   0  0  0  0  0  0  0  0  0  0  0  0
   29.3800   28.0000   34.9600 C   0  0  0  0  0  0  0  0  0  0  0  0
   30.6700   28.5000   35.1300 C   0  0  0  0  0  0  0  0  0  0  0  0
   31.5400   28.6100   34.0300 C   0  0  0  0  0  0  0  0  0  0  0  0
   31.0900   28.2200   32.7700 C   0  0  0  0  0  0  0  0  0  0  0  0
   29.8000   27.7000   32.6000 C   0  0  0  0  0  0  0  0  0  0  0  0
   28.9600   27.5500   33.7100 C   0  0  0  0  0  0  0  0  0  0  0  0
   27.6600   27.0300   33.5900 C   0  0  0  0  0  0  0  0  0  0  0  0
   27.1600   26.7400   32.3400 N   0  0  0  0  0  0  0  0  0  0  0  0
   23.3264   26.2237   35.9105 C   0  0  0  0  0  0  0  0  0  0  0  0
   23.0906   24.9491   35.5009 N   0  0  0  0  0  0  0  0  0  0  0  0
   21.9403   24.2939   35.7969 C   0  0  0  0  0  0  0  0  0  0  0  0
   20.9301   24.9200   36.5444 C   0  0  0  0  0  0  0  0  0  0  0  0
   19.7163   24.1324   36.8578 C   0  0  0  0  0  0  0  0  0  0  0  0
   19.8526   22.9348   37.2284 O   0  0  0  0  0  0  0  0  0  0  0  0
   18.3190   24.6510   36.6366 C   0  0  0  0  0  0  0  0  0  0  0  0
   18.1323   26.1359   36.9580 C   0  0  0  0  0  0  0  0  0  0  0  0
   18.9407   26.5615   38.1831 C   0  0  0  0  0  0  0  0  0  0  0  0
   20.2472   26.9722   37.7944 O   0  0  0  0  0  0  0  0  0  0  0  0
   21.1555   26.2431   37.0069 C   0  0  0  0  0  0  0  0  0  0  0  0
   22.3579   26.8838   36.6800 C   0  0  0  0  0  0  0  0  0  0  0  0
   22.5767   28.1519   37.1136 F   0  0  0  0  0  0  0  0  0  0  0  0
   24.7764   27.7856   36.0709 H   0  0  0  0  0  0  0  0  0  0  0  0
   31.0179   28.7883   36.1144 H   0  0  0  0  0  0  0  0  0  0  0  0
   32.5424   28.9969   34.1597 H   0  0  0  0  0  0  0  0  0  0  0  0
   31.7487   28.3095   31.9157 H   0  0  0  0  0  0  0  0  0  0  0  0
   29.5077   27.3813   31.6086 H   0  0  0  0  0  0  0  0  0  0  0  0
   26.7451   25.8074   32.1267 H   0  0  0  0  0  0  0  0  0  0  0  0
   27.2453   27.4248   31.5561 H   0  0  0  0  0  0  0  0  0  0  0  0
   21.8108   23.2802   35.4388 H   0  0  0  0  0  0  0  0  0  0  0  0
   17.6203   24.0664   37.2751 H   0  0  0  0  0  0  0  0  0  0  0  0
   18.0317   24.4676   35.5793 H   0  0  0  0  0  0  0  0  0  0  0  0
   18.4256   26.7529   36.0800 H   0  0  0  0  0  0  0  0  0  0  0  0
   17.0526   26.3242   37.1459 H   0  0  0  0  0  0  0  0  0  0  0  0
   18.4388   27.4279   38.6632 H   0  0  0  0  0  0  0  0  0  0  0  0
   19.0008   25.7510   38.9422 H   0  0  0  0  0  0  0  0  0  0  0  0
  1  2  1  0
  2  3  2  0
  2  4  1  0
  4  5  2  0
  5  6  1  0
  6  7  2  0
  7  8  1  0
  8  9  2  0
  9 10  1  0
 10 11  2  0
 11 12  1  0
 12 13  2  0
 13 14  1  0
  1 15  1  0
 15 16  2  0
 16 17  1  0
 17 18  2  0
 18 19  1  0
 19 20  2  0
 19 21  1  0
 21 22  1  0
 22 23  1  0
 23 24  1  0
 24 25  1  0
 25 26  2  0
 26 27  1  0
 13  4  1  0
 26 15  1  0
 12  7  1  0
 25 18  1  0
  1 28  1  0
  8 29  1  0
  9 30  1  0
 10 31  1  0
 11 32  1  0
 14 33  1  0
 14 34  1  0
 17 35  1  0
 21 36  1  0
 21 37  1  0
 22 38  1  0
 22 39  1  0
 23 40  1  0
 23 41  1  0
M  END
$$$$
confid_3
     RDKit          3D

 41 44  0  0  0  0  0  0  0  0999 V2000
   24.5700   26.8800   35.5900 N   0  0  0  0  0  0  0  0  0  0  0  0
   25.5000   26.4000   34.6900 C   0  0  0  0  0  0  0  0  0  0  0  0
   25.1700   25.5200   33.9100 O   0  0  0  0  0  0  0  0  0  0  0  0
   26.8400   27.0200   34.7400 C   0  0  0  0  0  0  0  0  0  0  0  0
   27.3800   27.2800   35.9400 N   0  0  0  0  0  0  0  0  0  0  0  0
   28.6200   27.7400   36.0300 N   0  0  0  0  0  0  0  0  0  0  0  0
   29.3800   28.0000   34.9600 C   0  0  0  0  0  0  0  0  0  0  0  0
   30.6700   28.5000   35.1300 C   0  0  0  0  0  0  0  0  0  0  0  0
   31.5400   28.6100   34.0300 C   0  0  0  0  0  0  0  0  0  0  0  0
   31.0900   28.2200   32.7700 C   0  0  0  0  0  0  0  0  0  0  0  0
   29.8000   27.7000   32.6000 C   0  0  0  0  0  0  0  0  0  0  0  0
   28.9600   27.5500   33.7100 C   0  0  0  0  0  0  0  0  0  0  0  0
   27.6600   27.0300   33.5900 C   0  0  0  0  0  0  0  0  0  0  0  0
   27.1600   26.7400   32.3400 N   0  0  0  0  0  0  0  0  0  0  0  0
   23.3261   26.2244   35.9104 C   0  0  0  0  0  0  0  0  0  0  0  0
   23.0848   24.9523   35.4931 N   0  0  0  0  0  0  0  0  0  0  0  0
   21.9315   24.2977   35.7842 C   0  0  0  0  0  0  0  0  0  0  0  0
   20.9296   24.9176   36.5516 C   0  0  0  0  0  0  0  0  0  0  0  0
   19.6548   24.1916   36.8154 C   0  0  0  0  0  0  0  0  0  0  0  0
   19.4033   23.1344   36.1748 O   0  0  0  0  0  0  0  0  0  0  0  0
   18.6294   24.6728   37.8075 C   0  0  0  0  0  0  0  0  0  0  0  0
   19.2810   25.0983   39.1271 C   0  0  0  0  0  0  0  0  0  0  0  0
   19.8155   26.5350   39.0769 C   0  0  0  0  0  0  0  0  0  0  0  0
   20.2198   26.9288   37.7670 O   0  0  0  0  0  0  0  0  0  0  0  0
   21.1673   26.2312   37.0147 C   0  0  0  0  0  0  0  0  0  0  0  0
   22.3594   26.8837   36.6823 C   0  0  0  0  0  0  0  0  0  0  0  0
   22.5710   28.1530   37.1150 F   0  0  0  0  0  0  0  0  0  0  0  0
   24.7769   27.7848   36.0722 H   0  0  0  0  0  0  0  0  0  0  0  0
   31.0179   28.7883   36.1144 H   0  0  0  0  0  0  0  0  0  0  0  0
   32.5424   28.9969   34.1597 H   0  0  0  0  0  0  0  0  0  0  0  0
   31.7487   28.3095   31.9157 H   0  0  0  0  0  0  0  0  0  0  0  0
   29.5077   27.3813   31.6086 H   0  0  0  0  0  0  0  0  0  0  0  0
   26.7451   25.8074   32.1267 H   0  0  0  0  0  0  0  0  0  0  0  0
   27.2453   27.4248   31.5561 H   0  0  0  0  0  0  0  0  0  0  0  0
   21.8010   23.2894   35.4133 H   0  0  0  0  0  0  0  0  0  0  0  0
   18.0370   25.5043   37.3675 H   0  0  0  0  0  0  0  0  0  0  0  0
   17.9199   23.8436   38.0226 H   0  0  0  0  0  0  0  0  0  0  0  0
   18.5297   25.0296   39.9440 H   0  0  0  0  0  0  0  0  0  0  0  0
   20.1059   24.3979   39.3871 H   0  0  0  0  0  0  0  0  0  0  0  0
   19.0174   27.2309   39.4125 H   0  0  0  0  0  0  0  0  0  0  0  0
   20.6716   26.6411   39.7776 H   0  0  0  0  0  0  0  0  0  0  0  0
  1  2  1  0
  2  3  2  0
  2  4  1  0
  4  5  2  0
  5  6  1  0
  6  7  2  0
  7  8  1  0
  8  9  2  0
  9 10  1  0
 10 11  2  0
 11 12  1  0
 12 13  2  0
 13 14  1  0
  1 15  1  0
 15 16  2  0
 16 17  1  0
 17 18  2  0
 18 19  1  0
 19 20  2  0
 19 21  1  0
 21 22  1  0
 22 23  1  0
 23 24  1  0
 24 25  1  0
 25 26  2  0
 26 27  1  0
 13  4  1  0
 26 15  1  0
 12  7  1  0
 25 18  1  0
  1 28  1  0
  8 29  1  0
  9 30  1  0
 10 31  1  0
 11 32  1  0
 14 33  1  0
 14 34  1  0
 17 35  1  0
 21 36  1  0
 21 37  1  0
 22 38  1  0
 22 39  1  0
 23 40  1  0
 23 41  1  0
M  END
$$$$
confid_4
     RDKit          3D

 41 44  0  0  0  0  0  0  0  0999 V2000
   24.5700   26.8800   35.5900 N   0  0  0  0  0  0  0  0  0  0  0  0
   25.5000   26.4000   34.6900 C   0  0  0  0  0  0  0  0  0  0  0  0
   25.1700   25.5200   33.9100 O   0  0  0  0  0  0  0  0  0  0  0  0
   26.8400   27.0200   34.7400 C   0  0  0  0  0  0  0  0  0  0  0  0
   27.3800   27.2800   35.9400 N   0  0  0  0  0  0  0  0  0  0  0  0
   28.6200   27.7400   36.0300 N   0  0  0  0  0  0  0  0  0  0  0  0
   29.3800   28.0000   34.9600 C   0  0  0  0  0  0  0  0  0  0  0  0
   30.6700   28.5000   35.1300 C   0  0  0  0  0  0  0  0  0  0  0  0
   31.5400   28.6100   34.0300 C   0  0  0  0  0  0  0  0  0  0  0  0
   31.0900   28.2200   32.7700 C   0  0  0  0  0  0  0  0  0  0  0  0
   29.8000   27.7000   32.6000 C   0  0  0  0  0  0  0  0  0  0  0  0
   28.9600   27.5500   33.7100 C   0  0  0  0  0  0  0  0  0  0  0  0
   27.6600   27.0300   33.5900 C   0  0  0  0  0  0  0  0  0  0  0  0
   27.1600   26.7400   32.3400 N   0  0  0  0  0  0  0  0  0  0  0  0
   23.3261   26.2242   35.9105 C   0  0  0  0  0  0  0  0  0  0  0  0
   23.0868   24.9521   35.4953 N   0  0  0  0  0  0  0  0  0  0  0  0
   21.9365   24.2973   35.7920 C   0  0  0  0  0  0  0  0  0  0  0  0
   20.9399   24.9127   36.5661 C   0  0  0  0  0  0  0  0  0  0  0  0
   19.6967   24.1503   36.8212 C   0  0  0  0  0  0  0  0  0  0  0  0
   19.1730   23.5128   35.8674 O   0  0  0  0  0  0  0  0  0  0  0  0
   19.0931   23.9953   38.1929 C   0  0  0  0  0  0  0  0  0  0  0  0
   19.1867   25.2430   39.0748 C   0  0  0  0  0  0  0  0  0  0  0  0
   18.9845   26.5271   38.2712 C   0  0  0  0  0  0  0  0  0  0  0  0
   20.2292   26.9898   37.7582 O   0  0  0  0  0  0  0  0  0  0  0  0
   21.1553   26.2447   37.0072 C   0  0  0  0  0  0  0  0  0  0  0  0
   22.3571   26.8856   36.6782 C   0  0  0  0  0  0  0  0  0  0  0  0
   22.5710   28.1583   37.1006 F   0  0  0  0  0  0  0  0  0  0  0  0
   24.7770   27.7849   36.0719 H   0  0  0  0  0  0  0  0  0  0  0  0
   31.0178   28.7888   36.1143 H   0  0  0  0  0  0  0  0  0  0  0  0
   32.5416   28.9991   34.1593 H   0  0  0  0  0  0  0  0  0  0  0  0
   31.7454   28.3188   31.9142 H   0  0  0  0  0  0  0  0  0  0  0  0
   29.5013   27.4243   31.5992 H   0  0  0  0  0  0  0  0  0  0  0  0
   26.1711   26.9655   32.0920 H   0  0  0  0  0  0  0  0  0  0  0  0
   27.7097   26.1832   31.6493 H   0  0  0  0  0  0  0  0  0  0  0  0
   21.8044   23.2852   35.4301 H   0  0  0  0  0  0  0  0  0  0  0  0
   19.5891   23.1458   38.7090 H   0  0  0  0  0  0  0  0  0  0  0  0
   18.0187   23.7304   38.0780 H   0  0  0  0  0  0  0  0  0  0  0  0
   20.1734   25.2708   39.5877 H   0  0  0  0  0  0  0  0  0  0  0  0
   18.4074   25.1769   39.8652 H   0  0  0  0  0  0  0  0  0  0  0  0
   18.5785   27.3127   38.9429 H   0  0  0  0  0  0  0  0  0  0  0  0
   18.2540   26.3881   37.4444 H   0  0  0  0  0  0  0  0  0  0  0  0
  1  2  1  0
  2  3  2  0
  2  4  1  0
  4  5  2  0
  5  6  1  0
  6  7  2  0
  7  8  1  0
  8  9  2  0
  9 10  1  0
 10 11  2  0
 11 12  1  0
 12 13  2  0
 13 14  1  0
  1 15  1  0
 15 16  2  0
 16 17  1  0
 17 18  2  0
 18 19  1  0
 19 20  2  0
 19 21  1  0
 21 22  1  0
 22 23  1  0
 23 24  1  0
 24 25  1  0
 25 26  2  0
 26 27  1  0
 13  4  1  0
 26 15  1  0
 12  7  1  0
 25 18  1  0
  1 28  1  0
  8 29  1  0
  9 30  1  0
 10 31  1  0
 11 32  1  0
 14 33  1  0
 14 34  1  0
 17 35  1  0
 21 36  1  0
 21 37  1  0
 22 38  1  0
 22 39  1  0
 23 40  1  0
 23 41  1  0
M  END
$$$$
confid_5
     RDKit          3D

 41 44  0  0  0  0  0  0  0  0999 V2000
   24.5700   26.8800   35.5900 N   0  0  0  0  0  0  0  0  0  0  0  0
   25.5000   26.4000   34.6900 C   0  0  0  0  0  0  0  0  0  0  0  0
   25.1700   25.5200   33.9100 O   0  0  0  0  0  0  0  0  0  0  0  0
   26.8400   27.0200   34.7400 C   0  0  0  0  0  0  0  0  0  0  0  0
   27.3800   27.2800   35.9400 N   0  0  0  0  0  0  0  0  0  0  0  0
   28.6200   27.7400   36.0300 N   0  0  0  0  0  0  0  0  0  0  0  0
   29.3800   28.0000   34.9600 C   0  0  0  0  0  0  0  0  0  0  0  0
   30.6700   28.5000   35.1300 C   0  0  0  0  0  0  0  0  0  0  0  0
   31.5400   28.6100   34.0300 C   0  0  0  0  0  0  0  0  0  0  0  0
   31.0900   28.2200   32.7700 C   0  0  0  0  0  0  0  0  0  0  0  0
   29.8000   27.7000   32.6000 C   0  0  0  0  0  0  0  0  0  0  0  0
   28.9600   27.5500   33.7100 C   0  0  0  0  0  0  0  0  0  0  0  0
   27.6600   27.0300   33.5900 C   0  0  0  0  0  0  0  0  0  0  0  0
   27.1600   26.7400   32.3400 N   0  0  0  0  0  0  0  0  0  0  0  0
   23.3255   26.2250   35.9093 C   0  0  0  0  0  0  0  0  0  0  0  0
   23.0851   24.9520   35.4939 N   0  0  0  0  0  0  0  0  0  0  0  0
   21.9356   24.2942   35.7926 C   0  0  0  0  0  0  0  0  0  0  0  0
   20.9316   24.9160   36.5557 C   0  0  0  0  0  0  0  0  0  0  0  0
   19.7003   24.1528   36.9069 C   0  0  0  0  0  0  0  0  0  0  0  0
   19.6677   22.9080   36.7047 O   0  0  0  0  0  0  0  0  0  0  0  0
   18.4837   24.7976   37.5165 C   0  0  0  0  0  0  0  0  0  0  0  0
   18.1156   26.0976   36.7943 C   0  0  0  0  0  0  0  0  0  0  0  0
   18.9276   27.2961   37.3008 C   0  0  0  0  0  0  0  0  0  0  0  0
   20.2223   26.9269   37.7719 O   0  0  0  0  0  0  0  0  0  0  0  0
   21.1556   26.2413   36.9913 C   0  0  0  0  0  0  0  0  0  0  0  0
   22.3587   26.8845   36.6808 C   0  0  0  0  0  0  0  0  0  0  0  0
   22.5727   28.1518   37.1183 F   0  0  0  0  0  0  0  0  0  0  0  0
   24.7768   27.7849   36.0722 H   0  0  0  0  0  0  0  0  0  0  0  0
   31.0179   28.7883   36.1144 H   0  0  0  0  0  0  0  0  0  0  0  0
   32.5424   28.9969   34.1597 H   0  0  0  0  0  0  0  0  0  0  0  0
   31.7487   28.3095   31.9157 H   0  0  0  0  0  0  0  0  0  0  0  0
   29.5077   27.3813   31.6086 H   0  0  0  0  0  0  0  0  0  0  0  0
   26.7451   25.8074   32.1267 H   0  0  0  0  0  0  0  0  0  0  0  0
   27.2453   27.4248   31.5561 H   0  0  0  0  0  0  0  0  0  0  0  0
   21.8108   23.2812   35.4328 H   0  0  0  0  0  0  0  0  0  0  0  0
   18.6523   24.9763   38.6006 H   0  0  0  0  0  0  0  0  0  0  0  0
   17.6238   24.0973   37.4300 H   0  0  0  0  0  0  0  0  0  0  0  0
   17.0358   26.3103   36.9533 H   0  0  0  0  0  0  0  0  0  0  0  0
   18.2633   25.9784   35.6977 H   0  0  0  0  0  0  0  0  0  0  0  0
   18.3815   27.7753   38.1410 H   0  0  0  0  0  0  0  0  0  0  0  0
   19.0282   28.0501   36.4906 H   0  0  0  0  0  0  0  0  0  0  0  0
  1  2  1  0
  2  3  2  0
  2  4  1  0
  4  5  2  0
  5  6  1  0
  6  7  2  0
  7  8  1  0
  8  9  2  0
  9 10  1  0
 10 11  2  0
 11 12  1  0
 12 13  2  0
 13 14  1  0
  1 15  1  0
 15 16  2  0
 16 17  1  0
 17 18  2  0
 18 19  1  0
 19 20  2  0
 19 21  1  0
 21 22  1  0
 22 23  1  0
 23 24  1  0
 24 25  1  0
 25 26  2  0
 26 27  1  0
 13  4  1  0
 26 15  1  0
 12  7  1  0
 25 18  1  0
  1 28  1  0
  8 29  1  0
  9 30  1  0
 10 31  1  0
 11 32  1  0
 14 33  1  0
 14 34  1  0
 17 35  1  0
 21 36  1  0
 21 37  1  0
 22 38  1  0
 22 39  1  0
 23 40  1  0
 23 41  1  0
M  END
$$$$
