confid_0
     RDKit          3D

 37 40  0  0  0  0  0  0  0  0999 V2000
   24.2000   26.2400   35.6900 N   0  0  0  0  0  0  0  0  0  0  0  0
   24.8500   26.2800   34.4800 C   0  0  0  0  0  0  0  0  0  0  0  0
   24.3100   25.7400   33.5400 O   0  0  0  0  0  0  0  0  0  0  0  0
   26.1800   26.9700   34.4700 C   0  0  0  0  0  0  0  0  0  0  0  0
   26.6500   27.6000   35.5500 N   0  0  0  0  0  0  0  0  0  0  0  0
   27.7900   28.2700   35.6200 N   0  0  0  0  0  0  0  0  0  0  0  0
   28.5400   28.3000   34.5100 C   0  0  0  0  0  0  0  0  0  0  0  0
   29.7700   28.9400   34.5600 C   0  0  0  0  0  0  0  0  0  0  0  0
   30.7000   28.8900   33.5000 C   0  0  0  0  0  0  0  0  0  0  0  0
   30.3700   28.1400   32.3700 C   0  0  0  0  0  0  0  0  0  0  0  0
   29.1200   27.5200   32.2800 C   0  0  0  0  0  0  0  0  0  0  0  0
   28.2100   27.6100   33.3300 C   0  0  0  0  0  0  0  0  0  0  0  0
   26.9700   26.9700   33.3100 C   0  0  0  0  0  0  0  0  0  0  0  0
   26.5300   26.2400   32.2200 N   0  0  0  0  0  0  0  0  0  0  0  0
   30.1318   29.6776   35.7429 N   0  0  0  0  0  0  0  0  0  0  0  0
   29.4141   30.9199   36.0740 C   0  0  0  0  0  0  0  0  0  0  0  0
   29.0835   30.9636   37.5722 C   0  0  0  0  0  0  0  0  0  0  0  0
   30.2736   30.5430   38.3742 C   0  0  0  0  0  0  0  0  0  0  0  0
   30.5135   30.7835   40.0198 S   0  0  0  0  0  0  0  0  0  0  0  0
   31.9543   29.9086   40.0209 C   0  0  0  0  0  0  0  0  0  0  0  0
   32.2537   29.4179   38.7971 N   0  0  0  0  0  0  0  0  0  0  0  0
   31.3076   29.7584   37.8829 C   0  0  0  0  0  0  0  0  0  0  0  0
   31.3923   29.3679   36.4376 C   0  0  0  0  0  0  0  0  0  0  0  0
   32.9523   29.6484   41.4348 Cl  0  0  0  0  0  0  0  0  0  0  0  0
   23.2681   25.7738   35.7694 H   0  0  0  0  0  0  0  0  0  0  0  0
   24.5987   26.6541   36.5616 H   0  0  0  0  0  0  0  0  0  0  0  0
   31.6542   29.3975   33.5604 H   0  0  0  0  0  0  0  0  0  0  0  0
   31.0702   28.0671   31.5478 H   0  0  0  0  0  0  0  0  0  0  0  0
   28.8853   26.9770   31.3743 H   0  0  0  0  0  0  0  0  0  0  0  0
   25.6756   26.5398   31.6999 H   0  0  0  0  0  0  0  0  0  0  0  0
   27.1525   25.5359   31.7655 H   0  0  0  0  0  0  0  0  0  0  0  0
   28.4709   31.0042   35.4910 H   0  0  0  0  0  0  0  0  0  0  0  0
   30.0545   31.7892   35.8088 H   0  0  0  0  0  0  0  0  0  0  0  0
   28.2453   30.2671   37.7872 H   0  0  0  0  0  0  0  0  0  0  0  0
   28.7773   31.9916   37.8602 H   0  0  0  0  0  0  0  0  0  0  0  0
   32.2251   29.9264   35.9605 H   0  0  0  0  0  0  0  0  0  0  0  0
   31.6039   28.2785   36.3727 H   0  0  0  0  0  0  0  0  0  0  0  0
  1  2  1  0
  2  3  2  0
  2  4  1  0
  4  5  2  0
  5  6  1  0
  6  7  2  0
  7  8  1  0
  8  9  2  0
  9 10  1  0
 10 11  2  0
 11 12  1  0
 12 13  2  0
 13 14  1  0
  8 15  1  0
 15 16  1  0
 16 17  1  0
 17 18  1  0
 18 19  1  0
 19 20  1  0
 20 21  2  0
 21 22  1  0
 22 23  1  0
 20 24  1  0
 13  4  1  0
 23 15  1  0
 12  7  1  0
 22 18  2  0
  1 25  1  0
  1 26  1  0
  9 27  1  0
 10 28  1  0
 11 29  1  0
 14 30  1  0
 14 31  1  0
 16 32  1  0
 16 33  1  0
 17 34  1  0
 17 35  1  0
 23 36  1  0
 23 37  1  0
M  END
$$$$
confid_1
     RDKit          3D

 37 40  0  0  0  0  0  0  0  0999 V2000
   24.2000   26.2400   35.6900 N   0  0  0  0  0  0  0  0  0  0  0  0
   24.8500   26.2800   34.4800 C   0  0  0  0  0  0  0  0  0  0  0  0
   24.3100   25.7400   33.5400 O   0  0  0  0  0  0  0  0  0  0  0  0
   26.1800   26.9700   34.4700 C   0  0  0  0  0  0  0  0  0  0  0  0
   26.6500   27.6000   35.5500 N   0  0  0  0  0  0  0  0  0  0  0  0
   27.7900   28.2700   35.6200 N   0  0  0  0  0  0  0  0  0  0  0  0
   28.5400   28.3000   34.5100 C   0  0  0  0  0  0  0  0  0  0  0  0
   29.7700   28.9400   34.5600 C   0  0  0  0  0  0  0  0  0  0  0  0
   30.7000   28.8900   33.5000 C   0  0  0  0  0  0  0  0  0  0  0  0
   30.3700   28.1400   32.3700 C   0  0  0  0  0  0  0  0  0  0  0  0
   29.1200   27.5200   32.2800 C   0  0  0  0  0  0  0  0  0  0  0  0
   28.2100   27.6100   33.3300 C   0  0  0  0  0  0  0  0  0  0  0  0
   26.9700   26.9700   33.3100 C   0  0  0  0  0  0  0  0  0  0  0  0
   26.5300   26.2400   32.2200 N   0  0  0  0  0  0  0  0  0  0  0  0
   30.1395   29.6894   35.7336 N   0  0  0  0  0  0  0  0  0  0  0  0
   31.3298   29.3123   36.5124 C   0  0  0  0  0  0  0  0  0  0  0  0
   32.3025   30.4964   36.5999 C   0  0  0  0  0  0  0  0  0  0  0  0
   31.5543   31.7537   36.9162 C   0  0  0  0  0  0  0  0  0  0  0  0
   32.2076   33.2022   37.4624 S   0  0  0  0  0  0  0  0  0  0  0  0
   30.7196   33.9920   37.4006 C   0  0  0  0  0  0  0  0  0  0  0  0
   29.7314   33.1837   36.9555 N   0  0  0  0  0  0  0  0  0  0  0  0
   30.2004   31.9407   36.6700 C   0  0  0  0  0  0  0  0  0  0  0  0
   29.3209   30.8291   36.1796 C   0  0  0  0  0  0  0  0  0  0  0  0
   30.4688   35.6653   37.8479 Cl  0  0  0  0  0  0  0  0  0  0  0  0
   23.2681   25.7737   35.7694 H   0  0  0  0  0  0  0  0  0  0  0  0
   24.5988   26.6539   36.5617 H   0  0  0  0  0  0  0  0  0  0  0  0
   31.6540   29.3982   33.5625 H   0  0  0  0  0  0  0  0  0  0  0  0
   31.0703   28.0671   31.5479 H   0  0  0  0  0  0  0  0  0  0  0  0
   28.8853   26.9770   31.3743 H   0  0  0  0  0  0  0  0  0  0  0  0
   25.6756   26.5399   31.6999 H   0  0  0  0  0  0  0  0  0  0  0  0
   27.1525   25.5359   31.7655 H   0  0  0  0  0  0  0  0  0  0  0  0
   31.0124   29.0182   37.5365 H   0  0  0  0  0  0  0  0  0  0  0  0
   31.8476   28.4399   36.0568 H   0  0  0  0  0  0  0  0  0  0  0  0
   33.0636   30.3013   37.3850 H   0  0  0  0  0  0  0  0  0  0  0  0
   32.8186   30.6247   35.6248 H   0  0  0  0  0  0  0  0  0  0  0  0
   28.6557   30.5044   37.0071 H   0  0  0  0  0  0  0  0  0  0  0  0
   28.6954   31.2075   35.3420 H   0  0  0  0  0  0  0  0  0  0  0  0
  1  2  1  0
  2  3  2  0
  2  4  1  0
  4  5  2  0
  5  6  1  0
  6  7  2  0
  7  8  1  0
  8  9  2  0
  9 10  1  0
 10 11  2  0
 11 12  1  0
 12 13  2  0
 13 14  1  0
  8 15  1  0
 15 16  1  0
 16 17  1  0
 17 18  1  0
 18 19  1  0
 19 20  1  0
 20 21  2  0
 21 22  1  0
 22 23  1  0
 20 24  1  0
 13  4  1  0
 23 15  1  0
 12  7  1  0
 22 18  2  0
  1 25  1  0
  1 26  1  0
  9 27  1  0
 10 28  1  0
 11 29  1  0
 14 30  1  0
 14 31  1  0
 16 32  1  0
 16 33  1  0
 17 34  1  0
 17 35  1  0
 23 36  1  0
 23 37  1  0
M  END
$$$$
confid_2
     RDKit          3D

 37 40  0  0  0  0  0  0  0  0999 V2000
   24.2000   26.2400   35.6900 N   0  0  0  0  0  0  0  0  0  0  0  0
   24.8500   26.2800   34.4800 C   0  0  0  0  0  0  0  0  0  0  0  0
   24.3100   25.7400   33.5400 O   0  0  0  0  0  0  0  0  0  0  0  0
   26.1800   26.9700   34.4700 C   0  0  0  0  0  0  0  0  0  0  0  0
   26.6500   27.6000   35.5500 N   0  0  0  0  0  0  0  0  0  0  0  0
   27.7900   28.2700   35.6200 N   0  0  0  0  0  0  0  0  0  0  0  0
   28.5400   28.3000   34.5100 C   0  0  0  0  0  0  0  0  0  0  0  0
   29.7700   28.9400   34.5600 C   0  0  0  0  0  0  0  0  0  0  0  0
   30.7000   28.8900   33.5000 C   0  0  0  0  0  0  0  0  0  0  0  0
   30.3700   28.1400   32.3700 C   0  0  0  0  0  0  0  0  0  0  0  0
   29.1200   27.5200   32.2800 C   0  0  0  0  0  0  0  0  0  0  0  0
   28.2100   27.6100   33.3300 C   0  0  0  0  0  0  0  0  0  0  0  0
   26.9700   26.9700   33.3100 C   0  0  0  0  0  0  0  0  0  0  0  0
   26.5300   26.2400   32.2200 N   0  0  0  0  0  0  0  0  0  0  0  0
   30.1473   29.6546   35.7495 N   0  0  0  0  0  0  0  0  0  0  0  0
   30.5836   28.9132   36.9421 C   0  0  0  0  0  0  0  0  0  0  0  0
   32.1061   29.0394   37.1077 C   0  0  0  0  0  0  0  0  0  0  0  0
   32.5389   30.4545   36.8667 C   0  0  0  0  0  0  0  0  0  0  0  0
   34.0322   31.1268   37.2417 S   0  0  0  0  0  0  0  0  0  0  0  0
   33.6434   32.6008   36.5212 C   0  0  0  0  0  0  0  0  0  0  0  0
   32.4035   32.5935   35.9819 N   0  0  0  0  0  0  0  0  0  0  0  0
   31.7958   31.3912   36.1586 C   0  0  0  0  0  0  0  0  0  0  0  0
   30.3998   31.1023   35.6937 C   0  0  0  0  0  0  0  0  0  0  0  0
   34.7120   33.9855   36.4633 Cl  0  0  0  0  0  0  0  0  0  0  0  0
   24.5989   26.6537   36.5617 H   0  0  0  0  0  0  0  0  0  0  0  0
   23.2681   25.7738   35.7694 H   0  0  0  0  0  0  0  0  0  0  0  0
   31.6608   29.3843   33.5716 H   0  0  0  0  0  0  0  0  0  0  0  0
   31.0720   28.0637   31.5497 H   0  0  0  0  0  0  0  0  0  0  0  0
   28.8857   26.9762   31.3747 H   0  0  0  0  0  0  0  0  0  0  0  0
   25.6756   26.5399   31.6998 H   0  0  0  0  0  0  0  0  0  0  0  0
   27.1524   25.5357   31.7656 H   0  0  0  0  0  0  0  0  0  0  0  0
   30.0780   29.3359   37.8375 H   0  0  0  0  0  0  0  0  0  0  0  0
   30.3054   27.8389   36.8691 H   0  0  0  0  0  0  0  0  0  0  0  0
   32.6122   28.3830   36.3681 H   0  0  0  0  0  0  0  0  0  0  0  0
   32.4020   28.7219   38.1300 H   0  0  0  0  0  0  0  0  0  0  0  0
   30.2604   31.4923   34.6618 H   0  0  0  0  0  0  0  0  0  0  0  0
   29.6832   31.6221   36.3637 H   0  0  0  0  0  0  0  0  0  0  0  0
  1  2  1  0
  2  3  2  0
  2  4  1  0
  4  5  2  0
  5  6  1  0
  6  7  2  0
  7  8  1  0
  8  9  2  0
  9 10  1  0
 10 11  2  0
 11 12  1  0
 12 13  2  0
 13 14  1  0
  8 15  1  0
 15 16  1  0
 16 17  1  0
 17 18  1  0
 18 19  1  0
 19 20  1  0
 20 21  2  0
 21 22  1  0
 22 23  1  0
 20 24  1  0
 13  4  1  0
 23 15  1  0
 12  7  1  0
 22 18  2  0
  1 25  1  0
  1 26  1  0
  9 27  1  0
 10 28  1  0
 11 29  1  0
 14 30  1  0
 14 31  1  0
 16 32  1  0
 16 33  1  0
 17 34  1  0
 17 35  1  0
 23 36  1  0
 23 37  1  0
M  END
$$$$
confid_3
     RDKit          3D

 37 40  0  0  0  0  0  0  0  0999 V2000
   24.2000   26.2400   35.6900 N   0  0  0  0  0  0  0  0  0  0  0  0
   24.8500   26.2800   34.4800 C   0  0  0  0  0  0  0  0  0  0  0  0
   24.3100   25.7400   33.5400 O   0  0  0  0  0  0  0  0  0  0  0  0
   26.1800   26.9700   34.4700 C   0  0  0  0  0  0  0  0  0  0  0  0
   26.6500   27.6000   35.5500 N   0  0  0  0  0  0  0  0  0  0  0  0
   27.7900   28.2700   35.6200 N   0  0  0  0  0  0  0  0  0  0  0  0
   28.5400   28.3000   34.5100 C   0  0  0  0  0  0  0  0  0  0  0  0
   29.7700   28.9400   34.5600 C   0  0  0  0  0  0  0  0  0  0  0  0
   30.7000   28.8900   33.5000 C   0  0  0  0  0  0  0  0  0  0  0  0
   30.3700   28.1400   32.3700 C   0  0  0  0  0  0  0  0  0  0  0  0
   29.1200   27.5200   32.2800 C   0  0  0  0  0  0  0  0  0  0  0  0
   28.2100   27.6100   33.3300 C   0  0  0  0  0  0  0  0  0  0  0  0
   26.9700   26.9700   33.3100 C   0  0  0  0  0  0  0  0  0  0  0  0
   26.5300   26.2400   32.2200 N   0  0  0  0  0  0  0  0  0  0  0  0
   30.1403   29.6590   35.7470 N   0  0  0  0  0  0  0  0  0  0  0  0
   30.3113   31.1185   35.6780 C   0  0  0  0  0  0  0  0  0  0  0  0
   29.7715   31.7813   36.9525 C   0  0  0  0  0  0  0  0  0  0  0  0
   30.2299   31.0269   38.1591 C   0  0  0  0  0  0  0  0  0  0  0  0
   30.2166   31.5687   39.7496 S   0  0  0  0  0  0  0  0  0  0  0  0
   30.7405   30.0818   40.3464 C   0  0  0  0  0  0  0  0  0  0  0  0
   30.9098   29.1691   39.3634 N   0  0  0  0  0  0  0  0  0  0  0  0
   30.6096   29.6926   38.1457 C   0  0  0  0  0  0  0  0  0  0  0  0
   30.7257   28.9114   36.8713 C   0  0  0  0  0  0  0  0  0  0  0  0
   31.0252   29.7401   42.0391 Cl  0  0  0  0  0  0  0  0  0  0  0  0
   23.2681   25.7737   35.7694 H   0  0  0  0  0  0  0  0  0  0  0  0
   24.5989   26.6538   36.5617 H   0  0  0  0  0  0  0  0  0  0  0  0
   31.6597   29.3862   33.5711 H   0  0  0  0  0  0  0  0  0  0  0  0
   31.0740   28.0593   31.5518 H   0  0  0  0  0  0  0  0  0  0  0  0
   28.8953   26.9542   31.3857 H   0  0  0  0  0  0  0  0  0  0  0  0
   26.6264   26.6231   31.2536 H   0  0  0  0  0  0  0  0  0  0  0  0
   26.3241   25.2204   32.3142 H   0  0  0  0  0  0  0  0  0  0  0  0
   29.7692   31.5348   34.8003 H   0  0  0  0  0  0  0  0  0  0  0  0
   31.3916   31.3543   35.5614 H   0  0  0  0  0  0  0  0  0  0  0  0
   30.1227   32.8335   37.0075 H   0  0  0  0  0  0  0  0  0  0  0  0
   28.6607   31.7747   36.9302 H   0  0  0  0  0  0  0  0  0  0  0  0
   30.2041   27.9384   36.9984 H   0  0  0  0  0  0  0  0  0  0  0  0
   31.7985   28.7148   36.6619 H   0  0  0  0  0  0  0  0  0  0  0  0
  1  2  1  0
  2  3  2  0
  2  4  1  0
  4  5  2  0
  5  6  1  0
  6  7  2  0
  7  8  1  0
  8  9  2  0
  9 10  1  0
 10 11  2  0
 11 12  1  0
 12 13  2  0
 13 14  1  0
  8 15  1  0
 15 16  1  0
 16 17  1  0
 17 18  1  0
 18 19  1  0
 19 20  1  0
 20 21  2  0
 21 22  1  0
 22 23  1  0
 20 24  1  0
 13  4  1  0
 23 15  1  0
 12  7  1  0
 22 18  2  0
  1 25  1  0
  1 26  1  0
  9 27  1  0
 10 28  1  0
 11 29  1  0
 14 30  1  0
 14 31  1  0
 16 32  1  0
 16 33  1  0
 17 34  1  0
 17 35  1  0
 23 36  1  0
 23 37  1  0
M  END
$$$$
confid_4
     RDKit          3D

 37 40  0  0  0  0  0  0  0  0999 V2000
   24.2000   26.2400   35.6900 N   0  0  0  0  0  0  0  0  0  0  0  0
   24.8500   26.2800   34.4800 C   0  0  0  0  0  0  0  0  0  0  0  0
   24.3100   25.7400   33.5400 O   0  0  0  0  0  0  0  0  0  0  0  0
   26.1800   26.9700   34.4700 C   0  0  0  0  0  0  0  0  0  0  0  0
   26.6500   27.6000   35.5500 N   0  0  0  0  0  0  0  0  0  0  0  0
   27.7900   28.2700   35.6200 N   0  0  0  0  0  0  0  0  0  0  0  0
   28.5400   28.3000   34.5100 C   0  0  0  0  0  0  0  0  0  0  0  0
   29.7700   28.9400   34.5600 C   0  0  0  0  0  0  0  0  0  0  0  0
   30.7000   28.8900   33.5000 C   0  0  0  0  0  0  0  0  0  0  0  0
   30.3700   28.1400   32.3700 C   0  0  0  0  0  0  0  0  0  0  0  0
   29.1200   27.5200   32.2800 C   0  0  0  0  0  0  0  0  0  0  0  0
   28.2100   27.6100   33.3300 C   0  0  0  0  0  0  0  0  0  0  0  0
   26.9700   26.9700   33.3100 C   0  0  0  0  0  0  0  0  0  0  0  0
   26.5300   26.2400   32.2200 N   0  0  0  0  0  0  0  0  0  0  0  0
   30.1455   29.6794   35.7351 N   0  0  0  0  0  0  0  0  0  0  0  0
   29.3584   30.8527   36.1493 C   0  0  0  0  0  0  0  0  0  0  0  0
   30.2878   32.0071   36.5444 C   0  0  0  0  0  0  0  0  0  0  0  0
   31.3842   31.5011   37.4253 C   0  0  0  0  0  0  0  0  0  0  0  0
   32.3802   32.4179   38.4206 S   0  0  0  0  0  0  0  0  0  0  0  0
   33.3080   31.0810   38.8603 C   0  0  0  0  0  0  0  0  0  0  0  0
   32.8899   29.9481   38.2521 N   0  0  0  0  0  0  0  0  0  0  0  0
   31.8259   30.1860   37.4408 C   0  0  0  0  0  0  0  0  0  0  0  0
   31.1476   29.1075   36.6493 C   0  0  0  0  0  0  0  0  0  0  0  0
   34.6648   31.1385   39.9642 Cl  0  0  0  0  0  0  0  0  0  0  0  0
   23.2681   25.7737   35.7694 H   0  0  0  0  0  0  0  0  0  0  0  0
   24.5988   26.6539   36.5617 H   0  0  0  0  0  0  0  0  0  0  0  0
   31.6560   29.3942   33.5671 H   0  0  0  0  0  0  0  0  0  0  0  0
   31.0731   28.0612   31.5509 H   0  0  0  0  0  0  0  0  0  0  0  0
   28.8951   26.9547   31.3854 H   0  0  0  0  0  0  0  0  0  0  0  0
   26.6263   26.6231   31.2536 H   0  0  0  0  0  0  0  0  0  0  0  0
   26.3242   25.2204   32.3142 H   0  0  0  0  0  0  0  0  0  0  0  0
   28.6939   31.1915   35.3241 H   0  0  0  0  0  0  0  0  0  0  0  0
   28.7200   30.5765   37.0168 H   0  0  0  0  0  0  0  0  0  0  0  0
   29.7083   32.7930   37.0738 H   0  0  0  0  0  0  0  0  0  0  0  0
   30.7396   32.4482   35.6304 H   0  0  0  0  0  0  0  0  0  0  0  0
   31.9190   28.5507   36.0749 H   0  0  0  0  0  0  0  0  0  0  0  0
   30.6467   28.4030   37.3463 H   0  0  0  0  0  0  0  0  0  0  0  0
  1  2  1  0
  2  3  2  0
  2  4  1  0
  4  5  2  0
  5  6  1  0
  6  7  2  0
  7  8  1  0
  8  9  2  0
  9 10  1  0
 10 11  2  0
 11 12  1  0
 12 13  2  0
 13 14  1  0
  8 15  1  0
 15 16  1  0
 16 17  1  0
 17 18  1  0
 18 19  1  0
 19 20  1  0
 20 21  2  0
 21 22  1  0
 22 23  1  0
 20 24  1  0
 13  4  1  0
 23 15  1  0
 12  7  1  0
 22 18  2  0
  1 25  1  0
  1 26  1  0
  9 27  1  0
 10 28  1  0
 11 29  1  0
 14 30  1  0
 14 31  1  0
 16 32  1  0
 16 33  1  0
 17 34  1  0
 17 35  1  0
 23 36  1  0
 23 37  1  0
M  END
$$$$
confid_5
     RDKit          3D

 37 40  0  0  0  0  0  0  0  0999 V2000
   24.2000   26.2400   35.6900 N   0  0  0  0  0  0  0  0  0  0  0  0
   24.8500   26.2800   34.4800 C   0  0  0  0  0  0  0  0  0  0  0  0
   24.3100   25.7400   33.5400 O   0  0  0  0  0  0  0  0  0  0  0  0
   26.1800   26.9700   34.4700 C   0  0  0  0  0  0  0  0  0  0  0  0
   26.6500   27.6000   35.5500 N   0  0  0  0  0  0  0  0  0  0  0  0
   27.7900   28.2700   35.6200 N   0  0  0  0  0  0  0  0  0  0  0  0
   28.5400   28.3000   34.5100 C   0  0  0  0  0  0  0  0  0  0  0  0
   29.7700   28.9400   34.5600 C   0  0  0  0  0  0  0  0  0  0  0  0
   30.7000   28.8900   33.5000 C   0  0  0  0  0  0  0  0  0  0  0  0
   30.3700   28.1400   32.3700 C   0  0  0  0  0  0  0  0  0  0  0  0
   29.1200   27.5200   32.2800 C   0  0  0  0  0  0  0  0  0  0  0  0
   28.2100   27.6100   33.3300 C   0  0  0  0  0  0  0  0  0  0  0  0
   26.9700   26.9700   33.3100 C   0  0  0  0  0  0  0  0  0  0  0  0
   26.5300   26.2400   32.2200 N   0  0  0  0  0  0  0  0  0  0  0  0
   30.1315   29.6754   35.7422 N   0  0  0  0  0  0  0  0  0  0  0  0
   31.3538   29.3139   36.4782 C   0  0  0  0  0  0  0  0  0  0  0  0
   31.1091   29.3893   37.9913 C   0  0  0  0  0  0  0  0  0  0  0  0
   30.3707   30.6438   38.3319 C   0  0  0  0  0  0  0  0  0  0  0  0
   30.2147   31.3377   39.8542 S   0  0  0  0  0  0  0  0  0  0  0  0
   29.1733   32.5374   39.2903 C   0  0  0  0  0  0  0  0  0  0  0  0
   28.9229   32.4143   37.9674 N   0  0  0  0  0  0  0  0  0  0  0  0
   29.5785   31.3485   37.4372 C   0  0  0  0  0  0  0  0  0  0  0  0
   29.5003   30.9830   35.9853 C   0  0  0  0  0  0  0  0  0  0  0  0
   28.4797   33.7952   40.2901 Cl  0  0  0  0  0  0  0  0  0  0  0  0
   23.2681   25.7737   35.7694 H   0  0  0  0  0  0  0  0  0  0  0  0
   24.5988   26.6539   36.5617 H   0  0  0  0  0  0  0  0  0  0  0  0
   31.6557   29.3947   33.5649 H   0  0  0  0  0  0  0  0  0  0  0  0
   31.0730   28.0614   31.5507 H   0  0  0  0  0  0  0  0  0  0  0  0
   28.8951   26.9547   31.3854 H   0  0  0  0  0  0  0  0  0  0  0  0
   26.6263   26.6231   31.2536 H   0  0  0  0  0  0  0  0  0  0  0  0
   26.3242   25.2204   32.3142 H   0  0  0  0  0  0  0  0  0  0  0  0
   32.1707   30.0132   36.1953 H   0  0  0  0  0  0  0  0  0  0  0  0
   31.6764   28.2812   36.2196 H   0  0  0  0  0  0  0  0  0  0  0  0
   30.4968   28.5190   38.3103 H   0  0  0  0  0  0  0  0  0  0  0  0
   32.0793   29.3624   38.5315 H   0  0  0  0  0  0  0  0  0  0  0  0
   30.0236   31.7585   35.3869 H   0  0  0  0  0  0  0  0  0  0  0  0
   28.4325   30.9606   35.6789 H   0  0  0  0  0  0  0  0  0  0  0  0
  1  2  1  0
  2  3  2  0
  2  4  1  0
  4  5  2  0
  5  6  1  0
  6  7  2  0
  7  8  1  0
  8  9  2  0
  9 10  1  0
 10 11  2  0
 11 12  1  0
 12 13  2  0
 13 14  1  0
  8 15  1  0
 15 16  1  0
 16 17  1  0
 17 18  1  0
 18 19  1  0
 19 20  1  0
 20 21  2  0
 21 22  1  0
 22 23  1  0
 20 24  1  0
 13  4  1  0
 23 15  1  0
 12  7  1  0
 22 18  2  0
  1 25  1  0
  1 26  1  0
  9 27  1  0
 10 28  1  0
 11 29  1  0
 14 30  1  0
 14 31  1  0
 16 32  1  0
 16 33  1  0
 17 34  1  0
 17 35  1  0
 23 36  1  0
 23 37  1  0
M  END
$$$$
confid_6
     RDKit          3D

 37 40  0  0  0  0  0  0  0  0999 V2000
   24.2000   26.2400   35.6900 N   0  0  0  0  0  0  0  0  0  0  0  0
   24.8500   26.2800   34.4800 C   0  0  0  0  0  0  0  0  0  0  0  0
   24.3100   25.7400   33.5400 O   0  0  0  0  0  0  0  0  0  0  0  0
   26.1800   26.9700   34.4700 C   0  0  0  0  0  0  0  0  0  0  0  0
   26.6500   27.6000   35.5500 N   0  0  0  0  0  0  0  0  0  0  0  0
   27.7900   28.2700   35.6200 N   0  0  0  0  0  0  0  0  0  0  0  0
   28.5400   28.3000   34.5100 C   0  0  0  0  0  0  0  0  0  0  0  0
   29.7700   28.9400   34.5600 C   0  0  0  0  0  0  0  0  0  0  0  0
   30.7000   28.8900   33.5000 C   0  0  0  0  0  0  0  0  0  0  0  0
   30.3700   28.1400   32.3700 C   0  0  0  0  0  0  0  0  0  0  0  0
   29.1200   27.5200   32.2800 C   0  0  0  0  0  0  0  0  0  0  0  0
   28.2100   27.6100   33.3300 C   0  0  0  0  0  0  0  0  0  0  0  0
   26.9700   26.9700   33.3100 C   0  0  0  0  0  0  0  0  0  0  0  0
   26.5300   26.2400   32.2200 N   0  0  0  0  0  0  0  0  0  0  0  0
   30.1408   29.6599   35.7480 N   0  0  0  0  0  0  0  0  0  0  0  0
   30.5994   28.9137   36.9308 C   0  0  0  0  0  0  0  0  0  0  0  0
   30.0050   29.5205   38.2089 C   0  0  0  0  0  0  0  0  0  0  0  0
   30.1150   31.0113   38.1696 C   0  0  0  0  0  0  0  0  0  0  0  0
   29.9567   32.0663   39.4678 S   0  0  0  0  0  0  0  0  0  0  0  0
   30.0889   33.4280   38.4828 C   0  0  0  0  0  0  0  0  0  0  0  0
   30.2335   33.1017   37.1786 N   0  0  0  0  0  0  0  0  0  0  0  0
   30.2322   31.7540   37.0031 C   0  0  0  0  0  0  0  0  0  0  0  0
   30.3959   31.1064   35.6605 C   0  0  0  0  0  0  0  0  0  0  0  0
   30.0355   35.0780   39.0638 Cl  0  0  0  0  0  0  0  0  0  0  0  0
   24.5990   26.6535   36.5618 H   0  0  0  0  0  0  0  0  0  0  0  0
   23.2680   25.7740   35.7693 H   0  0  0  0  0  0  0  0  0  0  0  0
   31.6607   29.3842   33.5698 H   0  0  0  0  0  0  0  0  0  0  0  0
   31.0719   28.0638   31.5496 H   0  0  0  0  0  0  0  0  0  0  0  0
   28.8857   26.9762   31.3747 H   0  0  0  0  0  0  0  0  0  0  0  0
   25.6757   26.5399   31.6998 H   0  0  0  0  0  0  0  0  0  0  0  0
   27.1524   25.5356   31.7657 H   0  0  0  0  0  0  0  0  0  0  0  0
   31.7094   28.9565   36.9785 H   0  0  0  0  0  0  0  0  0  0  0  0
   30.3022   27.8440   36.8654 H   0  0  0  0  0  0  0  0  0  0  0  0
   30.5404   29.1247   39.0979 H   0  0  0  0  0  0  0  0  0  0  0  0
   28.9316   29.2447   38.2852 H   0  0  0  0  0  0  0  0  0  0  0  0
   31.4317   31.2786   35.2987 H   0  0  0  0  0  0  0  0  0  0  0  0
   29.6826   31.5740   34.9477 H   0  0  0  0  0  0  0  0  0  0  0  0
  1  2  1  0
  2  3  2  0
  2  4  1  0
  4  5  2  0
  5  6  1  0
  6  7  2  0
  7  8  1  0
  8  9  2  0
  9 10  1  0
 10 11  2  0
 11 12  1  0
 12 13  2  0
 13 14  1  0
  8 15  1  0
 15 16  1  0
 16 17  1  0
 17 18  1  0
 18 19  1  0
 19 20  1  0
 20 21  2  0
 21 22  1  0
 22 23  1  0
 20 24  1  0
 13  4  1  0
 23 15  1  0
 12  7  1  0
 22 18  2  0
  1 25  1  0
  1 26  1  0
  9 27  1  0
 10 28  1  0
 11 29  1  0
 14 30  1  0
 14 31  1  0
 16 32  1  0
 16 33  1  0
 17 34  1  0
 17 35  1  0
 23 36  1  0
 23 37  1  0
M  END
$$$$
confid_7
     RDKit          3D

 37 40  0  0  0  0  0  0  0  0999 V2000
   24.2000   26.2400   35.6900 N   0  0  0  0  0  0  0  0  0  0  0  0
   24.8500   26.2800   34.4800 C   0  0  0  0  0  0  0  0  0  0  0  0
   24.3100   25.7400   33.5400 O   0  0  0  0  0  0  0  0  0  0  0  0
   26.1800   26.9700   34.4700 C   0  0  0  0  0  0  0  0  0  0  0  0
   26.6500   27.6000   35.5500 N   0  0  0  0  0  0  0  0  0  0  0  0
   27.7900   28.2700   35.6200 N   0  0  0  0  0  0  0  0  0  0  0  0
   28.5400   28.3000   34.5100 C   0  0  0  0  0  0  0  0  0  0  0  0
   29.7700   28.9400   34.5600 C   0  0  0  0  0  0  0  0  0  0  0  0
   30.7000   28.8900   33.5000 C   0  0  0  0  0  0  0  0  0  0  0  0
   30.3700   28.1400   32.3700 C   0  0  0  0  0  0  0  0  0  0  0  0
   29.1200   27.5200   32.2800 C   0  0  0  0  0  0  0  0  0  0  0  0
   28.2100   27.6100   33.3300 C   0  0  0  0  0  0  0  0  0  0  0  0
   26.9700   26.9700   33.3100 C   0  0  0  0  0  0  0  0  0  0  0  0
   26.5300   26.2400   32.2200 N   0  0  0  0  0  0  0  0  0  0  0  0
   30.1540   29.6640   35.7431 N   0  0  0  0  0  0  0  0  0  0  0  0
   30.3427   31.1217   35.6880 C   0  0  0  0  0  0  0  0  0  0  0  0
   31.7754   31.4868   36.1008 C   0  0  0  0  0  0  0  0  0  0  0  0
   32.1737   30.7117   37.3180 C   0  0  0  0  0  0  0  0  0  0  0  0
   33.4758   31.0303   38.3310 S   0  0  0  0  0  0  0  0  0  0  0  0
   33.2025   29.6466   39.2543 C   0  0  0  0  0  0  0  0  0  0  0  0
   32.1490   28.9308   38.8004 N   0  0  0  0  0  0  0  0  0  0  0  0
   31.5860   29.5164   37.7110 C   0  0  0  0  0  0  0  0  0  0  0  0
   30.3845   28.9539   37.0116 C   0  0  0  0  0  0  0  0  0  0  0  0
   34.1668   29.1730   40.6358 Cl  0  0  0  0  0  0  0  0  0  0  0  0
   24.5989   26.6537   36.5617 H   0  0  0  0  0  0  0  0  0  0  0  0
   23.2681   25.7738   35.7694 H   0  0  0  0  0  0  0  0  0  0  0  0
   31.6599   29.3858   33.5699 H   0  0  0  0  0  0  0  0  0  0  0  0
   31.0717   28.0642   31.5494 H   0  0  0  0  0  0  0  0  0  0  0  0
   28.8856   26.9763   31.3747 H   0  0  0  0  0  0  0  0  0  0  0  0
   25.6756   26.5399   31.6998 H   0  0  0  0  0  0  0  0  0  0  0  0
   27.1524   25.5357   31.7656 H   0  0  0  0  0  0  0  0  0  0  0  0
   30.1405   31.5121   34.6663 H   0  0  0  0  0  0  0  0  0  0  0  0
   29.6228   31.6052   36.3837 H   0  0  0  0  0  0  0  0  0  0  0  0
   31.8416   32.5761   36.3075 H   0  0  0  0  0  0  0  0  0  0  0  0
   32.4743   31.2363   35.2747 H   0  0  0  0  0  0  0  0  0  0  0  0
   29.4967   29.0738   37.6675 H   0  0  0  0  0  0  0  0  0  0  0  0
   30.5500   27.8704   36.8247 H   0  0  0  0  0  0  0  0  0  0  0  0
  1  2  1  0
  2  3  2  0
  2  4  1  0
  4  5  2  0
  5  6  1  0
  6  7  2  0
  7  8  1  0
  8  9  2  0
  9 10  1  0
 10 11  2  0
 11 12  1  0
 12 13  2  0
 13 14  1  0
  8 15  1  0
 15 16  1  0
 16 17  1  0
 17 18  1  0
 18 19  1  0
 19 20  1  0
 20 21  2  0
 21 22  1  0
 22 23  1  0
 20 24  1  0
 13  4  1  0
 23 15  1  0
 12  7  1  0
 22 18  2  0
  1 25  1  0
  1 26  1  0
  9 27  1  0
 10 28  1  0
 11 29  1  0
 14 30  1  0
 14 31  1  0
 16 32  1  0
 16 33  1  0
 17 34  1  0
 17 35  1  0
 23 36  1  0
 23 37  1  0
M  END
$$$$
confid_8
     RDKit          3D

 37 40  0  0  0  0  0  0  0  0999 V2000
   24.2000   26.2400   35.6900 N   0  0  0  0  0  0  0  0  0  0  0  0
   24.8500   26.2800   34.4800 C   0  0  0  0  0  0  0  0  0  0  0  0
   24.3100   25.7400   33.5400 O   0  0  0  0  0  0  0  0  0  0  0  0
   26.1800   26.9700   34.4700 C   0  0  0  0  0  0  0  0  0  0  0  0
   26.6500   27.6000   35.5500 N   0  0  0  0  0  0  0  0  0  0  0  0
   27.7900   28.2700   35.6200 N   0  0  0  0  0  0  0  0  0  0  0  0
   28.5400   28.3000   34.5100 C   0  0  0  0  0  0  0  0  0  0  0  0
   29.7700   28.9400   34.5600 C   0  0  0  0  0  0  0  0  0  0  0  0
   30.7000   28.8900   33.5000 C   0  0  0  0  0  0  0  0  0  0  0  0
   30.3700   28.1400   32.3700 C   0  0  0  0  0  0  0  0  0  0  0  0
   29.1200   27.5200   32.2800 C   0  0  0  0  0  0  0  0  0  0  0  0
   28.2100   27.6100   33.3300 C   0  0  0  0  0  0  0  0  0  0  0  0
   26.9700   26.9700   33.3100 C   0  0  0  0  0  0  0  0  0  0  0  0
   26.5300   26.2400   32.2200 N   0  0  0  0  0  0  0  0  0  0  0  0
   30.1489   29.6651   35.7392 N   0  0  0  0  0  0  0  0  0  0  0  0
   30.8338   28.9554   36.8300 C   0  0  0  0  0  0  0  0  0  0  0  0
   31.9707   29.8152   37.3972 C   0  0  0  0  0  0  0  0  0  0  0  0
   31.5013   31.2205   37.5956 C   0  0  0  0  0  0  0  0  0  0  0  0
   32.2333   32.4012   38.5403 S   0  0  0  0  0  0  0  0  0  0  0  0
   31.1350   33.5847   38.0563 C   0  0  0  0  0  0  0  0  0  0  0  0
   30.2290   33.1087   37.1729 N   0  0  0  0  0  0  0  0  0  0  0  0
   30.4433   31.7938   36.9047 C   0  0  0  0  0  0  0  0  0  0  0  0
   29.5782   31.0010   35.9711 C   0  0  0  0  0  0  0  0  0  0  0  0
   31.1575   35.2426   38.6156 Cl  0  0  0  0  0  0  0  0  0  0  0  0
   23.2685   25.7731   35.7698 H   0  0  0  0  0  0  0  0  0  0  0  0
   24.5941   26.6631   36.5593 H   0  0  0  0  0  0  0  0  0  0  0  0
   31.6581   29.3894   33.5714 H   0  0  0  0  0  0  0  0  0  0  0  0
   31.0737   28.0600   31.5515 H   0  0  0  0  0  0  0  0  0  0  0  0
   28.8952   26.9544   31.3855 H   0  0  0  0  0  0  0  0  0  0  0  0
   26.3257   25.2199   32.3139 H   0  0  0  0  0  0  0  0  0  0  0  0
   26.6255   26.6237   31.2537 H   0  0  0  0  0  0  0  0  0  0  0  0
   30.0994   28.7315   37.6342 H   0  0  0  0  0  0  0  0  0  0  0  0
   31.2549   27.9912   36.4687 H   0  0  0  0  0  0  0  0  0  0  0  0
   32.8214   29.8215   36.6829 H   0  0  0  0  0  0  0  0  0  0  0  0
   32.3160   29.3920   38.3641 H   0  0  0  0  0  0  0  0  0  0  0  0
   29.4965   31.5496   35.0077 H   0  0  0  0  0  0  0  0  0  0  0  0
   28.5645   30.8993   36.4128 H   0  0  0  0  0  0  0  0  0  0  0  0
  1  2  1  0
  2  3  2  0
  2  4  1  0
  4  5  2  0
  5  6  1  0
  6  7  2  0
  7  8  1  0
  8  9  2  0
  9 10  1  0
 10 11  2  0
 11 12  1  0
 12 13  2  0
 13 14  1  0
  8 15  1  0
 15 16  1  0
 16 17  1  0
 17 18  1  0
 18 19  1  0
 19 20  1  0
 20 21  2  0
 21 22  1  0
 22 23  1  0
 20 24  1  0
 13  4  1  0
 23 15  1  0
 12  7  1  0
 22 18  2  0
  1 25  1  0
  1 26  1  0
  9 27  1  0
 10 28  1  0
 11 29  1  0
 14 30  1  0
 14 31  1  0
 16 32  1  0
 16 33  1  0
 17 34  1  0
 17 35  1  0
 23 36  1  0
 23 37  1  0
M  END
$$$$
