confid_0
     RDKit          3D

 48 52  0  0  0  0  0  0  0  0999 V2000
   24.6900   26.1200   35.5300 N   0  0  0  0  0  0  0  0  0  0  0  0
   25.6600   25.6700   34.6600 C   0  0  0  0  0  0  0  0  0  0  0  0
   25.2400   25.0100   33.7200 O   0  0  0  0  0  0  0  0  0  0  0  0
   27.0300   26.2200   34.8800 C   0  0  0  0  0  0  0  0  0  0  0  0
   27.3500   26.7300   36.0700 N   0  0  0  0  0  0  0  0  0  0  0  0
   28.5700   27.1800   36.3300 N   0  0  0  0  0  0  0  0  0  0  0  0
   29.5300   27.1100   35.3900 C   0  0  0  0  0  0  0  0  0  0  0  0
   30.8300   27.5700   35.6500 C   0  0  0  0  0  0  0  0  0  0  0  0
   31.8500   27.5400   34.6900 C   0  0  0  0  0  0  0  0  0  0  0  0
   31.5100   27.1200   33.4000 C   0  0  0  0  0  0  0  0  0  0  0  0
   30.2200   26.6300   33.1100 C   0  0  0  0  0  0  0  0  0  0  0  0
   29.2400   26.6600   34.1000 C   0  0  0  0  0  0  0  0  0  0  0  0
   27.9300   26.2600   33.8100 C   0  0  0  0  0  0  0  0  0  0  0  0
   27.5200   25.7100   32.6100 N   0  0  0  0  0  0  0  0  0  0  0  0
   23.4648   25.4195   35.8099 C   0  0  0  0  0  0  0  0  0  0  0  0
   23.3331   24.1593   35.4871 N   0  0  0  0  0  0  0  0  0  0  0  0
   22.1355   23.4254   35.7641 C   0  0  0  0  0  0  0  0  0  0  0  0
   21.0535   23.6946   35.0477 C   0  0  0  0  0  0  0  0  0  0  0  0
   19.5573   23.6170   35.1321 C   0  0  0  0  0  0  0  0  0  0  0  0
   19.3303   24.3727   33.9815 O   0  0  0  0  0  0  0  0  0  0  0  0
   20.7064   24.4059   33.7778 C   0  0  0  0  0  0  0  0  0  0  0  0
   21.2977   25.8205   33.6282 C   0  0  0  0  0  0  0  0  0  0  0  0
   20.9441   26.8638   34.7050 C   0  0  0  0  0  0  0  0  0  0  0  0
   21.2697   26.5800   36.1680 C   0  0  0  0  0  0  0  0  0  0  0  0
   22.4377   26.0829   36.6418 C   0  0  0  0  0  0  0  0  0  0  0  0
   22.6907   26.1398   38.0164 O   0  0  0  0  0  0  0  0  0  0  0  0
   21.7122   26.6114   38.9396 C   0  0  0  0  0  0  0  0  0  0  0  0
   20.9085   27.6032   38.3356 O   0  0  0  0  0  0  0  0  0  0  0  0
   20.2669   27.0473   37.2035 C   0  0  0  0  0  0  0  0  0  0  0  0
   24.8290   27.0373   36.0128 H   0  0  0  0  0  0  0  0  0  0  0  0
   31.0673   27.9414   36.6394 H   0  0  0  0  0  0  0  0  0  0  0  0
   32.8486   27.8872   34.9214 H   0  0  0  0  0  0  0  0  0  0  0  0
   32.2655   27.1208   32.6249 H   0  0  0  0  0  0  0  0  0  0  0  0
   30.0114   26.2784   32.1078 H   0  0  0  0  0  0  0  0  0  0  0  0
   27.6979   26.2228   31.7183 H   0  0  0  0  0  0  0  0  0  0  0  0
   27.3404   24.6833   32.5418 H   0  0  0  0  0  0  0  0  0  0  0  0
   22.0391   22.8944   36.7016 H   0  0  0  0  0  0  0  0  0  0  0  0
   19.1817   22.5755   35.0219 H   0  0  0  0  0  0  0  0  0  0  0  0
   19.1643   24.1323   36.0353 H   0  0  0  0  0  0  0  0  0  0  0  0
   20.9846   23.7823   32.8971 H   0  0  0  0  0  0  0  0  0  0  0  0
   22.3960   25.7540   33.5001 H   0  0  0  0  0  0  0  0  0  0  0  0
   20.9277   26.2194   32.6588 H   0  0  0  0  0  0  0  0  0  0  0  0
   19.8567   27.0733   34.6079 H   0  0  0  0  0  0  0  0  0  0  0  0
   21.4639   27.8079   34.4349 H   0  0  0  0  0  0  0  0  0  0  0  0
   21.0914   25.7611   39.3016 H   0  0  0  0  0  0  0  0  0  0  0  0
   22.2297   27.0494   39.8175 H   0  0  0  0  0  0  0  0  0  0  0  0
   19.6028   27.8261   36.7730 H   0  0  0  0  0  0  0  0  0  0  0  0
   19.6117   26.1971   37.4995 H   0  0  0  0  0  0  0  0  0  0  0  0
  1  2  1  0
  2  3  2  0
  2  4  1  0
  4  5  2  0
  5  6  1  0
  6  7  2  0
  7  8  1  0
  8  9  2  0
  9 10  1  0
 10 11  2  0
 11 12  1  0
 12 13  2  0
 13 14  1  0
  1 15  1  0
 15 16  2  0
 16 17  1  0
 17 18  2  0
 18 19  1  0
 19 20  1  0
 20 21  1  0
 21 22  1  0
 22 23  1  0
 23 24  1  0
 24 25  2  0
 25 26  1  0
 26 27  1  0
 27 28  1  0
 28 29  1  0
 13  4  1  0
 25 15  1  0
 12  7  1  0
 21 18  1  0
 29 24  1  0
  1 30  1  0
  8 31  1  0
  9 32  1  0
 10 33  1  0
 11 34  1  0
 14 35  1  0
 14 36  1  0
 17 37  1  0
 19 38  1  0
 19 39  1  0
 21 40  1  0
 22 41  1  0
 22 42  1  0
 23 43  1  0
 23 44  1  0
 27 45  1  0
 27 46  1  0
 29 47  1  0
 29 48  1  0
M  END
$$$$
confid_1
     RDKit          3D

 48 52  0  0  0  0  0  0  0  0999 V2000
   24.6900   26.1200   35.5300 N   0  0  0  0  0  0  0  0  0  0  0  0
   25.6600   25.6700   34.6600 C   0  0  0  0  0  0  0  0  0  0  0  0
   25.2400   25.0100   33.7200 O   0  0  0  0  0  0  0  0  0  0  0  0
   27.0300   26.2200   34.8800 C   0  0  0  0  0  0  0  0  0  0  0  0
   27.3500   26.7300   36.0700 N   0  0  0  0  0  0  0  0  0  0  0  0
   28.5700   27.1800   36.3300 N   0  0  0  0  0  0  0  0  0  0  0  0
   29.5300   27.1100   35.3900 C   0  0  0  0  0  0  0  0  0  0  0  0
   30.8300   27.5700   35.6500 C   0  0  0  0  0  0  0  0  0  0  0  0
   31.8500   27.5400   34.6900 C   0  0  0  0  0  0  0  0  0  0  0  0
   31.5100   27.1200   33.4000 C   0  0  0  0  0  0  0  0  0  0  0  0
   30.2200   26.6300   33.1100 C   0  0  0  0  0  0  0  0  0  0  0  0
   29.2400   26.6600   34.1000 C   0  0  0  0  0  0  0  0  0  0  0  0
   27.9300   26.2600   33.8100 C   0  0  0  0  0  0  0  0  0  0  0  0
   27.5200   25.7100   32.6100 N   0  0  0  0  0  0  0  0  0  0  0  0
   23.3487   26.4782   35.1478 C   0  0  0  0  0  0  0  0  0  0  0  0
   23.0101   26.5201   33.8918 N   0  0  0  0  0  0  0  0  0  0  0  0
   21.7182   26.8831   33.3973 C   0  0  0  0  0  0  0  0  0  0  0  0
   21.3756   28.1595   33.2555 C   0  0  0  0  0  0  0  0  0  0  0  0
   20.3247   28.9425   32.5280 C   0  0  0  0  0  0  0  0  0  0  0  0
   20.8911   30.1866   32.7851 O   0  0  0  0  0  0  0  0  0  0  0  0
   21.8837   29.5527   33.5289 C   0  0  0  0  0  0  0  0  0  0  0  0
   21.7868   30.0045   34.9978 C   0  0  0  0  0  0  0  0  0  0  0  0
   22.7526   29.2745   35.9444 C   0  0  0  0  0  0  0  0  0  0  0  0
   22.1052   28.0630   36.5806 C   0  0  0  0  0  0  0  0  0  0  0  0
   22.3812   26.8006   36.2109 C   0  0  0  0  0  0  0  0  0  0  0  0
   21.7320   25.7445   36.8558 O   0  0  0  0  0  0  0  0  0  0  0  0
   20.8659   25.9782   37.9652 C   0  0  0  0  0  0  0  0  0  0  0  0
   20.1981   27.2153   37.8129 O   0  0  0  0  0  0  0  0  0  0  0  0
   21.1562   28.2565   37.7425 C   0  0  0  0  0  0  0  0  0  0  0  0
   24.9403   26.2447   36.5374 H   0  0  0  0  0  0  0  0  0  0  0  0
   31.0672   27.9417   36.6393 H   0  0  0  0  0  0  0  0  0  0  0  0
   32.8482   27.8886   34.9211 H   0  0  0  0  0  0  0  0  0  0  0  0
   32.2640   27.1263   32.6235 H   0  0  0  0  0  0  0  0  0  0  0  0
   30.0101   26.3034   32.1003 H   0  0  0  0  0  0  0  0  0  0  0  0
   28.1317   25.0439   32.0889 H   0  0  0  0  0  0  0  0  0  0  0  0
   26.6932   26.1020   32.1061 H   0  0  0  0  0  0  0  0  0  0  0  0
   21.1042   26.1254   32.9296 H   0  0  0  0  0  0  0  0  0  0  0  0
   19.3235   28.8425   33.0027 H   0  0  0  0  0  0  0  0  0  0  0  0
   20.3186   28.7203   31.4383 H   0  0  0  0  0  0  0  0  0  0  0  0
   22.8909   29.7278   33.0885 H   0  0  0  0  0  0  0  0  0  0  0  0
   22.0355   31.0879   35.0231 H   0  0  0  0  0  0  0  0  0  0  0  0
   20.7368   29.9146   35.3541 H   0  0  0  0  0  0  0  0  0  0  0  0
   23.7021   29.0280   35.4230 H   0  0  0  0  0  0  0  0  0  0  0  0
   23.0338   29.9717   36.7635 H   0  0  0  0  0  0  0  0  0  0  0  0
   21.4493   25.9557   38.9131 H   0  0  0  0  0  0  0  0  0  0  0  0
   20.1143   25.1637   38.0110 H   0  0  0  0  0  0  0  0  0  0  0  0
   20.6153   29.2188   37.6302 H   0  0  0  0  0  0  0  0  0  0  0  0
   21.7351   28.3224   38.6912 H   0  0  0  0  0  0  0  0  0  0  0  0
  1  2  1  0
  2  3  2  0
  2  4  1  0
  4  5  2  0
  5  6  1  0
  6  7  2  0
  7  8  1  0
  8  9  2  0
  9 10  1  0
 10 11  2  0
 11 12  1  0
 12 13  2  0
 13 14  1  0
  1 15  1  0
 15 16  2  0
 16 17  1  0
 17 18  2  0
 18 19  1  0
 19 20  1  0
 20 21  1  0
 21 22  1  0
 22 23  1  0
 23 24  1  0
 24 25  2  0
 25 26  1  0
 26 27  1  0
 27 28  1  0
 28 29  1  0
 13  4  1  0
 25 15  1  0
 12  7  1  0
 21 18  1  0
 29 24  1  0
  1 30  1  0
  8 31  1  0
  9 32  1  0
 10 33  1  0
 11 34  1  0
 14 35  1  0
 14 36  1  0
 17 37  1  0
 19 38  1  0
 19 39  1  0
 21 40  1  0
 22 41  1  0
 22 42  1  0
 23 43  1  0
 23 44  1  0
 27 45  1  0
 27 46  1  0
 29 47  1  0
 29 48  1  0
M  END
$$$$
confid_2
     RDKit          3D

 48 52  0  0  0  0  0  0  0  0999 V2000
   24.6900   26.1200   35.5300 N   0  0  0  0  0  0  0  0  0  0  0  0
   25.6600   25.6700   34.6600 C   0  0  0  0  0  0  0  0  0  0  0  0
   25.2400   25.0100   33.7200 O   0  0  0  0  0  0  0  0  0  0  0  0
   27.0300   26.2200   34.8800 C   0  0  0  0  0  0  0  0  0  0  0  0
   27.3500   26.7300   36.0700 N   0  0  0  0  0  0  0  0  0  0  0  0
   28.5700   27.1800   36.3300 N   0  0  0  0  0  0  0  0  0  0  0  0
   29.5300   27.1100   35.3900 C   0  0  0  0  0  0  0  0  0  0  0  0
   30.8300   27.5700   35.6500 C   0  0  0  0  0  0  0  0  0  0  0  0
   31.8500   27.5400   34.6900 C   0  0  0  0  0  0  0  0  0  0  0  0
   31.5100   27.1200   33.4000 C   0  0  0  0  0  0  0  0  0  0  0  0
   30.2200   26.6300   33.1100 C   0  0  0  0  0  0  0  0  0  0  0  0
   29.2400   26.6600   34.1000 C   0  0  0  0  0  0  0  0  0  0  0  0
   27.9300   26.2600   33.8100 C   0  0  0  0  0  0  0  0  0  0  0  0
   27.5200   25.7100   32.6100 N   0  0  0  0  0  0  0  0  0  0  0  0
   23.2831   26.2475   35.2360 C   0  0  0  0  0  0  0  0  0  0  0  0
   22.7876   25.8336   34.0973 N   0  0  0  0  0  0  0  0  0  0  0  0
   21.3995   25.9783   33.7749 C   0  0  0  0  0  0  0  0  0  0  0  0
   20.9449   27.1914   33.4885 C   0  0  0  0  0  0  0  0  0  0  0  0
   19.6804   27.9967   33.5644 C   0  0  0  0  0  0  0  0  0  0  0  0
   20.2988   29.2216   33.3069 O   0  0  0  0  0  0  0  0  0  0  0  0
   21.4927   28.5334   33.1126 C   0  0  0  0  0  0  0  0  0  0  0  0
   22.6734   29.0326   33.9681 C   0  0  0  0  0  0  0  0  0  0  0  0
   22.4518   29.2027   35.4840 C   0  0  0  0  0  0  0  0  0  0  0  0
   21.8845   28.0379   36.2839 C   0  0  0  0  0  0  0  0  0  0  0  0
   22.3827   26.7789   36.2838 C   0  0  0  0  0  0  0  0  0  0  0  0
   21.9473   25.8775   37.2591 O   0  0  0  0  0  0  0  0  0  0  0  0
   21.0776   26.2944   38.3050 C   0  0  0  0  0  0  0  0  0  0  0  0
   20.1521   27.2353   37.8058 O   0  0  0  0  0  0  0  0  0  0  0  0
   20.8509   28.3764   37.3403 C   0  0  0  0  0  0  0  0  0  0  0  0
   24.9756   26.4493   36.4797 H   0  0  0  0  0  0  0  0  0  0  0  0
   31.0674   27.9411   36.6395 H   0  0  0  0  0  0  0  0  0  0  0  0
   32.8488   27.8867   34.9215 H   0  0  0  0  0  0  0  0  0  0  0  0
   32.2654   27.1210   32.6250 H   0  0  0  0  0  0  0  0  0  0  0  0
   30.0114   26.2786   32.1078 H   0  0  0  0  0  0  0  0  0  0  0  0
   27.3404   24.6833   32.5416 H   0  0  0  0  0  0  0  0  0  0  0  0
   27.6970   26.2231   31.7183 H   0  0  0  0  0  0  0  0  0  0  0  0
   20.7025   25.2052   34.0718 H   0  0  0  0  0  0  0  0  0  0  0  0
   18.9577   27.7237   32.7622 H   0  0  0  0  0  0  0  0  0  0  0  0
   19.2360   27.9761   34.5842 H   0  0  0  0  0  0  0  0  0  0  0  0
   21.7763   28.5452   32.0340 H   0  0  0  0  0  0  0  0  0  0  0  0
   23.5587   28.3894   33.7848 H   0  0  0  0  0  0  0  0  0  0  0  0
   22.9628   30.0287   33.5676 H   0  0  0  0  0  0  0  0  0  0  0  0
   23.4315   29.4652   35.9387 H   0  0  0  0  0  0  0  0  0  0  0  0
   21.8055   30.0963   35.6254 H   0  0  0  0  0  0  0  0  0  0  0  0
   21.6697   26.7202   39.1472 H   0  0  0  0  0  0  0  0  0  0  0  0
   20.5266   25.4112   38.6873 H   0  0  0  0  0  0  0  0  0  0  0  0
   21.3376   28.9104   38.1880 H   0  0  0  0  0  0  0  0  0  0  0  0
   20.1039   29.0709   36.9018 H   0  0  0  0  0  0  0  0  0  0  0  0
  1  2  1  0
  2  3  2  0
  2  4  1  0
  4  5  2  0
  5  6  1  0
  6  7  2  0
  7  8  1  0
  8  9  2  0
  9 10  1  0
 10 11  2  0
 11 12  1  0
 12 13  2  0
 13 14  1  0
  1 15  1  0
 15 16  2  0
 16 17  1  0
 17 18  2  0
 18 19  1  0
 19 20  1  0
 20 21  1  0
 21 22  1  0
 22 23  1  0
 23 24  1  0
 24 25  2  0
 25 26  1  0
 26 27  1  0
 27 28  1  0
 28 29  1  0
 13  4  1  0
 25 15  1  0
 12  7  1  0
 21 18  1  0
 29 24  1  0
  1 30  1  0
  8 31  1  0
  9 32  1  0
 10 33  1  0
 11 34  1  0
 14 35  1  0
 14 36  1  0
 17 37  1  0
 19 38  1  0
 19 39  1  0
 21 40  1  0
 22 41  1  0
 22 42  1  0
 23 43  1  0
 23 44  1  0
 27 45  1  0
 27 46  1  0
 29 47  1  0
 29 48  1  0
M  END
$$$$
confid_3
     RDKit          3D

 48 52  0  0  0  0  0  0  0  0999 V2000
   24.6900   26.1200   35.5300 N   0  0  0  0  0  0  0  0  0  0  0  0
   25.6600   25.6700   34.6600 C   0  0  0  0  0  0  0  0  0  0  0  0
   25.2400   25.0100   33.7200 O   0  0  0  0  0  0  0  0  0  0  0  0
   27.0300   26.2200   34.8800 C   0  0  0  0  0  0  0  0  0  0  0  0
   27.3500   26.7300   36.0700 N   0  0  0  0  0  0  0  0  0  0  0  0
   28.5700   27.1800   36.3300 N   0  0  0  0  0  0  0  0  0  0  0  0
   29.5300   27.1100   35.3900 C   0  0  0  0  0  0  0  0  0  0  0  0
   30.8300   27.5700   35.6500 C   0  0  0  0  0  0  0  0  0  0  0  0
   31.8500   27.5400   34.6900 C   0  0  0  0  0  0  0  0  0  0  0  0
   31.5100   27.1200   33.4000 C   0  0  0  0  0  0  0  0  0  0  0  0
   30.2200   26.6300   33.1100 C   0  0  0  0  0  0  0  0  0  0  0  0
   29.2400   26.6600   34.1000 C   0  0  0  0  0  0  0  0  0  0  0  0
   27.9300   26.2600   33.8100 C   0  0  0  0  0  0  0  0  0  0  0  0
   27.5200   25.7100   32.6100 N   0  0  0  0  0  0  0  0  0  0  0  0
   23.4842   25.3984   35.8467 C   0  0  0  0  0  0  0  0  0  0  0  0
   23.3988   24.1343   35.5331 N   0  0  0  0  0  0  0  0  0  0  0  0
   22.3876   23.1236   35.6948 C   0  0  0  0  0  0  0  0  0  0  0  0
   21.0668   23.3088   35.7611 C   0  0  0  0  0  0  0  0  0  0  0  0
   19.8916   22.3706   35.7485 C   0  0  0  0  0  0  0  0  0  0  0  0
   18.9222   23.3617   35.8097 O   0  0  0  0  0  0  0  0  0  0  0  0
   19.9391   24.3073   35.8595 C   0  0  0  0  0  0  0  0  0  0  0  0
   19.8321   25.2887   34.6740 C   0  0  0  0  0  0  0  0  0  0  0  0
   20.9553   26.3415   34.6271 C   0  0  0  0  0  0  0  0  0  0  0  0
   21.4136   26.7284   36.0141 C   0  0  0  0  0  0  0  0  0  0  0  0
   22.4578   26.1278   36.6089 C   0  0  0  0  0  0  0  0  0  0  0  0
   22.6449   26.2955   37.9839 O   0  0  0  0  0  0  0  0  0  0  0  0
   21.7933   27.1484   38.7500 C   0  0  0  0  0  0  0  0  0  0  0  0
   20.4878   27.1667   38.2038 O   0  0  0  0  0  0  0  0  0  0  0  0
   20.5493   27.6287   36.8661 C   0  0  0  0  0  0  0  0  0  0  0  0
   24.8205   27.0519   35.9873 H   0  0  0  0  0  0  0  0  0  0  0  0
   31.0673   27.9414   36.6394 H   0  0  0  0  0  0  0  0  0  0  0  0
   32.8486   27.8872   34.9214 H   0  0  0  0  0  0  0  0  0  0  0  0
   32.2655   27.1208   32.6249 H   0  0  0  0  0  0  0  0  0  0  0  0
   30.0114   26.2784   32.1078 H   0  0  0  0  0  0  0  0  0  0  0  0
   27.6978   26.2228   31.7183 H   0  0  0  0  0  0  0  0  0  0  0  0
   27.3405   24.6833   32.5418 H   0  0  0  0  0  0  0  0  0  0  0  0
   22.7178   22.0979   35.6005 H   0  0  0  0  0  0  0  0  0  0  0  0
   19.8654   21.7198   36.6506 H   0  0  0  0  0  0  0  0  0  0  0  0
   19.8248   21.7991   34.7965 H   0  0  0  0  0  0  0  0  0  0  0  0
   19.9165   24.8114   36.8506 H   0  0  0  0  0  0  0  0  0  0  0  0
   18.8580   25.8175   34.7608 H   0  0  0  0  0  0  0  0  0  0  0  0
   19.8155   24.7269   33.7143 H   0  0  0  0  0  0  0  0  0  0  0  0
   21.7942   25.9564   34.0101 H   0  0  0  0  0  0  0  0  0  0  0  0
   20.5825   27.2479   34.1030 H   0  0  0  0  0  0  0  0  0  0  0  0
   22.2211   28.1754   38.7868 H   0  0  0  0  0  0  0  0  0  0  0  0
   21.7451   26.7655   39.7899 H   0  0  0  0  0  0  0  0  0  0  0  0
   20.9446   28.6687   36.8285 H   0  0  0  0  0  0  0  0  0  0  0  0
   19.5174   27.6611   36.4577 H   0  0  0  0  0  0  0  0  0  0  0  0
  1  2  1  0
  2  3  2  0
  2  4  1  0
  4  5  2  0
  5  6  1  0
  6  7  2  0
  7  8  1  0
  8  9  2  0
  9 10  1  0
 10 11  2  0
 11 12  1  0
 12 13  2  0
 13 14  1  0
  1 15  1  0
 15 16  2  0
 16 17  1  0
 17 18  2  0
 18 19  1  0
 19 20  1  0
 20 21  1  0
 21 22  1  0
 22 23  1  0
 23 24  1  0
 24 25  2  0
 25 26  1  0
 26 27  1  0
 27 28  1  0
 28 29  1  0
 13  4  1  0
 25 15  1  0
 12  7  1  0
 21 18  1  0
 29 24  1  0
  1 30  1  0
  8 31  1  0
  9 32  1  0
 10 33  1  0
 11 34  1  0
 14 35  1  0
 14 36  1  0
 17 37  1  0
 19 38  1  0
 19 39  1  0
 21 40  1  0
 22 41  1  0
 22 42  1  0
 23 43  1  0
 23 44  1  0
 27 45  1  0
 27 46  1  0
 29 47  1  0
 29 48  1  0
M  END
$$$$
