confid_0
     RDKit          3D

 38 40  0  0  0  0  0  0  0  0999 V2000
   24.5700   26.8800   35.5900 N   0  0  0  0  0  0  0  0  0  0  0  0
   25.5000   26.4000   34.6900 C   0  0  0  0  0  0  0  0  0  0  0  0
   25.1700   25.5200   33.9100 O   0  0  0  0  0  0  0  0  0  0  0  0
   26.8400   27.0200   34.7400 C   0  0  0  0  0  0  0  0  0  0  0  0
   27.3800   27.2800   35.9400 N   0  0  0  0  0  0  0  0  0  0  0  0
   28.6200   27.7400   36.0300 N   0  0  0  0  0  0  0  0  0  0  0  0
   29.3800   28.0000   34.9600 C   0  0  0  0  0  0  0  0  0  0  0  0
   30.6700   28.5000   35.1300 C   0  0  0  0  0  0  0  0  0  0  0  0
   31.5400   28.6100   34.0300 C   0  0  0  0  0  0  0  0  0  0  0  0
   31.0900   28.2200   32.7700 C   0  0  0  0  0  0  0  0  0  0  0  0
   29.8000   27.7000   32.6000 C   0  0  0  0  0  0  0  0  0  0  0  0
   28.9600   27.5500   33.7100 C   0  0  0  0  0  0  0  0  0  0  0  0
   27.6600   27.0300   33.5900 C   0  0  0  0  0  0  0  0  0  0  0  0
   27.1600   26.7400   32.3400 N   0  0  0  0  0  0  0  0  0  0  0  0
   32.9071   29.1628   34.1911 C   0  0  0  0  0  0  0  0  0  0  0  0
   33.4056   29.8373   33.2487 O   0  0  0  0  0  0  0  0  0  0  0  0
   33.7089   28.9505   35.4209 C   0  0  0  0  0  0  0  0  0  0  0  0
   34.6225   29.9300   35.8411 C   0  0  0  0  0  0  0  0  0  0  0  0
   35.3940   29.7355   36.9898 C   0  0  0  0  0  0  0  0  0  0  0  0
   35.2739   28.5482   37.7364 C   0  0  0  0  0  0  0  0  0  0  0  0
   36.0293   28.3166   38.8969 O   0  0  0  0  0  0  0  0  0  0  0  0
   36.9758   29.2320   39.4386 C   0  0  0  0  0  0  0  0  0  0  0  0
   34.3734   27.5612   37.3081 C   0  0  0  0  0  0  0  0  0  0  0  0
   33.6026   27.7581   36.1572 C   0  0  0  0  0  0  0  0  0  0  0  0
   34.2051   26.0598   38.2054 Cl  0  0  0  0  0  0  0  0  0  0  0  0
   24.7885   27.6687   36.2396 H   0  0  0  0  0  0  0  0  0  0  0  0
   23.6076   26.4745   35.6186 H   0  0  0  0  0  0  0  0  0  0  0  0
   30.9934   28.8073   36.1175 H   0  0  0  0  0  0  0  0  0  0  0  0
   31.7386   28.3023   31.9063 H   0  0  0  0  0  0  0  0  0  0  0  0
   29.5076   27.3809   31.6087 H   0  0  0  0  0  0  0  0  0  0  0  0
   26.7461   25.8070   32.1265 H   0  0  0  0  0  0  0  0  0  0  0  0
   27.2452   27.4249   31.5562 H   0  0  0  0  0  0  0  0  0  0  0  0
   34.7313   30.8538   35.2861 H   0  0  0  0  0  0  0  0  0  0  0  0
   36.0809   30.5154   37.2884 H   0  0  0  0  0  0  0  0  0  0  0  0
   36.4737   30.1848   39.7093 H   0  0  0  0  0  0  0  0  0  0  0  0
   37.7870   29.4217   38.7043 H   0  0  0  0  0  0  0  0  0  0  0  0
   37.4215   28.7928   40.3544 H   0  0  0  0  0  0  0  0  0  0  0  0
   32.9317   26.9725   35.8324 H   0  0  0  0  0  0  0  0  0  0  0  0
  1  2  1  0
  2  3  2  0
  2  4  1  0
  4  5  2  0
  5  6  1  0
  6  7  2  0
  7  8  1  0
  8  9  2  0
  9 10  1  0
 10 11  2  0
 11 12  1  0
 12 13  2  0
 13 14  1  0
  9 15  1  0
 15 16  2  0
 15 17  1  0
 17 18  2  0
 18 19  1  0
 19 20  2  0
 20 21  1  0
 21 22  1  0
 20 23  1  0
 23 24  2  0
 23 25  1  0
 13  4  1  0
 24 17  1  0
 12  7  1  0
  1 26  1  0
  1 27  1  0
  8 28  1  0
 10 29  1  0
 11 30  1  0
 14 31  1  0
 14 32  1  0
 18 33  1  0
 19 34  1  0
 22 35  1  0
 22 36  1  0
 22 37  1  0
 24 38  1  0
M  END
$$$$
confid_1
     RDKit          3D

 38 40  0  0  0  0  0  0  0  0999 V2000
   24.5700   26.8800   35.5900 N   0  0  0  0  0  0  0  0  0  0  0  0
   25.5000   26.4000   34.6900 C   0  0  0  0  0  0  0  0  0  0  0  0
   25.1700   25.5200   33.9100 O   0  0  0  0  0  0  0  0  0  0  0  0
   26.8400   27.0200   34.7400 C   0  0  0  0  0  0  0  0  0  0  0  0
   27.3800   27.2800   35.9400 N   0  0  0  0  0  0  0  0  0  0  0  0
   28.6200   27.7400   36.0300 N   0  0  0  0  0  0  0  0  0  0  0  0
   29.3800   28.0000   34.9600 C   0  0  0  0  0  0  0  0  0  0  0  0
   30.6700   28.5000   35.1300 C   0  0  0  0  0  0  0  0  0  0  0  0
   31.5400   28.6100   34.0300 C   0  0  0  0  0  0  0  0  0  0  0  0
   31.0900   28.2200   32.7700 C   0  0  0  0  0  0  0  0  0  0  0  0
   29.8000   27.7000   32.6000 C   0  0  0  0  0  0  0  0  0  0  0  0
   28.9600   27.5500   33.7100 C   0  0  0  0  0  0  0  0  0  0  0  0
   27.6600   27.0300   33.5900 C   0  0  0  0  0  0  0  0  0  0  0  0
   27.1600   26.7400   32.3400 N   0  0  0  0  0  0  0  0  0  0  0  0
   32.9059   29.1659   34.1907 C   0  0  0  0  0  0  0  0  0  0  0  0
   33.4029   29.8408   33.2478 O   0  0  0  0  0  0  0  0  0  0  0  0
   33.7081   28.9564   35.4207 C   0  0  0  0  0  0  0  0  0  0  0  0
   33.6059   27.7637   36.1563 C   0  0  0  0  0  0  0  0  0  0  0  0
   34.3781   27.5697   37.3044 C   0  0  0  0  0  0  0  0  0  0  0  0
   35.2783   28.5628   37.7341 C   0  0  0  0  0  0  0  0  0  0  0  0
   36.0697   28.4061   38.8831 O   0  0  0  0  0  0  0  0  0  0  0  0
   36.0505   27.2576   39.7245 C   0  0  0  0  0  0  0  0  0  0  0  0
   35.3931   29.7473   36.9909 C   0  0  0  0  0  0  0  0  0  0  0  0
   34.6188   29.9391   35.8411 C   0  0  0  0  0  0  0  0  0  0  0  0
   36.5107   31.0075   37.4918 Cl  0  0  0  0  0  0  0  0  0  0  0  0
   24.7885   27.6687   36.2395 H   0  0  0  0  0  0  0  0  0  0  0  0
   23.6076   26.4746   35.6186 H   0  0  0  0  0  0  0  0  0  0  0  0
   30.9933   28.8078   36.1174 H   0  0  0  0  0  0  0  0  0  0  0  0
   31.7353   28.3115   31.9047 H   0  0  0  0  0  0  0  0  0  0  0  0
   29.5012   27.4239   31.5993 H   0  0  0  0  0  0  0  0  0  0  0  0
   26.1714   26.9663   32.0917 H   0  0  0  0  0  0  0  0  0  0  0  0
   27.7096   26.1829   31.6495 H   0  0  0  0  0  0  0  0  0  0  0  0
   32.9388   26.9733   35.8360 H   0  0  0  0  0  0  0  0  0  0  0  0
   34.2712   26.6407   37.8473 H   0  0  0  0  0  0  0  0  0  0  0  0
   35.0362   27.1156   40.1538 H   0  0  0  0  0  0  0  0  0  0  0  0
   36.3521   26.3572   39.1486 H   0  0  0  0  0  0  0  0  0  0  0  0
   36.7704   27.4051   40.5554 H   0  0  0  0  0  0  0  0  0  0  0  0
   34.7203   30.8620   35.2829 H   0  0  0  0  0  0  0  0  0  0  0  0
  1  2  1  0
  2  3  2  0
  2  4  1  0
  4  5  2  0
  5  6  1  0
  6  7  2  0
  7  8  1  0
  8  9  2  0
  9 10  1  0
 10 11  2  0
 11 12  1  0
 12 13  2  0
 13 14  1  0
  9 15  1  0
 15 16  2  0
 15 17  1  0
 17 18  2  0
 18 19  1  0
 19 20  2  0
 20 21  1  0
 21 22  1  0
 20 23  1  0
 23 24  2  0
 23 25  1  0
 13  4  1  0
 24 17  1  0
 12  7  1  0
  1 26  1  0
  1 27  1  0
  8 28  1  0
 10 29  1  0
 11 30  1  0
 14 31  1  0
 14 32  1  0
 18 33  1  0
 19 34  1  0
 22 35  1  0
 22 36  1  0
 22 37  1  0
 24 38  1  0
M  END
$$$$
confid_2
     RDKit          3D

 38 40  0  0  0  0  0  0  0  0999 V2000
   24.5700   26.8800   35.5900 N   0  0  0  0  0  0  0  0  0  0  0  0
   25.5000   26.4000   34.6900 C   0  0  0  0  0  0  0  0  0  0  0  0
   25.1700   25.5200   33.9100 O   0  0  0  0  0  0  0  0  0  0  0  0
   26.8400   27.0200   34.7400 C   0  0  0  0  0  0  0  0  0  0  0  0
   27.3800   27.2800   35.9400 N   0  0  0  0  0  0  0  0  0  0  0  0
   28.6200   27.7400   36.0300 N   0  0  0  0  0  0  0  0  0  0  0  0
   29.3800   28.0000   34.9600 C   0  0  0  0  0  0  0  0  0  0  0  0
   30.6700   28.5000   35.1300 C   0  0  0  0  0  0  0  0  0  0  0  0
   31.5400   28.6100   34.0300 C   0  0  0  0  0  0  0  0  0  0  0  0
   31.0900   28.2200   32.7700 C   0  0  0  0  0  0  0  0  0  0  0  0
   29.8000   27.7000   32.6000 C   0  0  0  0  0  0  0  0  0  0  0  0
   28.9600   27.5500   33.7100 C   0  0  0  0  0  0  0  0  0  0  0  0
   27.6600   27.0300   33.5900 C   0  0  0  0  0  0  0  0  0  0  0  0
   27.1600   26.7400   32.3400 N   0  0  0  0  0  0  0  0  0  0  0  0
   32.9016   29.1684   34.2167 C   0  0  0  0  0  0  0  0  0  0  0  0
   33.0794   30.0546   35.0968 O   0  0  0  0  0  0  0  0  0  0  0  0
   34.0615   28.7222   33.4067 C   0  0  0  0  0  0  0  0  0  0  0  0
   34.1669   27.3925   32.9654 C   0  0  0  0  0  0  0  0  0  0  0  0
   35.2719   26.9786   32.2173 C   0  0  0  0  0  0  0  0  0  0  0  0
   36.3013   27.8862   31.9044 C   0  0  0  0  0  0  0  0  0  0  0  0
   37.4261   27.5091   31.1536 O   0  0  0  0  0  0  0  0  0  0  0  0
   37.6470   26.2020   30.6337 C   0  0  0  0  0  0  0  0  0  0  0  0
   36.2048   29.2102   32.3586 C   0  0  0  0  0  0  0  0  0  0  0  0
   35.0972   29.6222   33.1081 C   0  0  0  0  0  0  0  0  0  0  0  0
   37.4729   30.3708   31.9939 Cl  0  0  0  0  0  0  0  0  0  0  0  0
   24.7885   27.6687   36.2396 H   0  0  0  0  0  0  0  0  0  0  0  0
   23.6076   26.4745   35.6186 H   0  0  0  0  0  0  0  0  0  0  0  0
   31.0057   28.7839   36.1209 H   0  0  0  0  0  0  0  0  0  0  0  0
   31.7264   28.3267   31.9004 H   0  0  0  0  0  0  0  0  0  0  0  0
   29.5056   27.3865   31.6076 H   0  0  0  0  0  0  0  0  0  0  0  0
   27.2437   27.4255   31.5566 H   0  0  0  0  0  0  0  0  0  0  0  0
   26.7469   25.8067   32.1264 H   0  0  0  0  0  0  0  0  0  0  0  0
   33.4016   26.6671   33.2113 H   0  0  0  0  0  0  0  0  0  0  0  0
   35.3183   25.9483   31.8920 H   0  0  0  0  0  0  0  0  0  0  0  0
   38.6092   26.1894   30.0821 H   0  0  0  0  0  0  0  0  0  0  0  0
   37.7030   25.4657   31.4631 H   0  0  0  0  0  0  0  0  0  0  0  0
   36.8312   25.9273   29.9321 H   0  0  0  0  0  0  0  0  0  0  0  0
   35.0405   30.6496   33.4470 H   0  0  0  0  0  0  0  0  0  0  0  0
  1  2  1  0
  2  3  2  0
  2  4  1  0
  4  5  2  0
  5  6  1  0
  6  7  2  0
  7  8  1  0
  8  9  2  0
  9 10  1  0
 10 11  2  0
 11 12  1  0
 12 13  2  0
 13 14  1  0
  9 15  1  0
 15 16  2  0
 15 17  1  0
 17 18  2  0
 18 19  1  0
 19 20  2  0
 20 21  1  0
 21 22  1  0
 20 23  1  0
 23 24  2  0
 23 25  1  0
 13  4  1  0
 24 17  1  0
 12  7  1  0
  1 26  1  0
  1 27  1  0
  8 28  1  0
 10 29  1  0
 11 30  1  0
 14 31  1  0
 14 32  1  0
 18 33  1  0
 19 34  1  0
 22 35  1  0
 22 36  1  0
 22 37  1  0
 24 38  1  0
M  END
$$$$
confid_3
     RDKit          3D

 38 40  0  0  0  0  0  0  0  0999 V2000
   24.5700   26.8800   35.5900 N   0  0  0  0  0  0  0  0  0  0  0  0
   25.5000   26.4000   34.6900 C   0  0  0  0  0  0  0  0  0  0  0  0
   25.1700   25.5200   33.9100 O   0  0  0  0  0  0  0  0  0  0  0  0
   26.8400   27.0200   34.7400 C   0  0  0  0  0  0  0  0  0  0  0  0
   27.3800   27.2800   35.9400 N   0  0  0  0  0  0  0  0  0  0  0  0
   28.6200   27.7400   36.0300 N   0  0  0  0  0  0  0  0  0  0  0  0
   29.3800   28.0000   34.9600 C   0  0  0  0  0  0  0  0  0  0  0  0
   30.6700   28.5000   35.1300 C   0  0  0  0  0  0  0  0  0  0  0  0
   31.5400   28.6100   34.0300 C   0  0  0  0  0  0  0  0  0  0  0  0
   31.0900   28.2200   32.7700 C   0  0  0  0  0  0  0  0  0  0  0  0
   29.8000   27.7000   32.6000 C   0  0  0  0  0  0  0  0  0  0  0  0
   28.9600   27.5500   33.7100 C   0  0  0  0  0  0  0  0  0  0  0  0
   27.6600   27.0300   33.5900 C   0  0  0  0  0  0  0  0  0  0  0  0
   27.1600   26.7400   32.3400 N   0  0  0  0  0  0  0  0  0  0  0  0
   32.9206   29.1157   34.2267 C   0  0  0  0  0  0  0  0  0  0  0  0
   33.5118   28.8612   35.3117 O   0  0  0  0  0  0  0  0  0  0  0  0
   33.6308   29.9101   33.1947 C   0  0  0  0  0  0  0  0  0  0  0  0
   32.9331   30.7970   32.3577 C   0  0  0  0  0  0  0  0  0  0  0  0
   33.6140   31.5532   31.4003 C   0  0  0  0  0  0  0  0  0  0  0  0
   35.0112   31.4451   31.2685 C   0  0  0  0  0  0  0  0  0  0  0  0
   35.7307   32.1863   30.3176 O   0  0  0  0  0  0  0  0  0  0  0  0
   35.1453   33.1046   29.4003 C   0  0  0  0  0  0  0  0  0  0  0  0
   35.7108   30.5719   32.1150 C   0  0  0  0  0  0  0  0  0  0  0  0
   35.0266   29.8159   33.0734 C   0  0  0  0  0  0  0  0  0  0  0  0
   37.4562   30.4145   31.9852 Cl  0  0  0  0  0  0  0  0  0  0  0  0
   23.6076   26.4746   35.6186 H   0  0  0  0  0  0  0  0  0  0  0  0
   24.7884   27.6687   36.2395 H   0  0  0  0  0  0  0  0  0  0  0  0
   31.0046   28.7864   36.1205 H   0  0  0  0  0  0  0  0  0  0  0  0
   31.7410   28.2873   31.9073 H   0  0  0  0  0  0  0  0  0  0  0  0
   29.5032   27.4188   31.6002 H   0  0  0  0  0  0  0  0  0  0  0  0
   27.7092   26.1823   31.6497 H   0  0  0  0  0  0  0  0  0  0  0  0
   26.1715   26.9666   32.0916 H   0  0  0  0  0  0  0  0  0  0  0  0
   31.8613   30.9176   32.4528 H   0  0  0  0  0  0  0  0  0  0  0  0
   33.0443   32.2234   30.7714 H   0  0  0  0  0  0  0  0  0  0  0  0
   34.6380   33.9241   29.9519 H   0  0  0  0  0  0  0  0  0  0  0  0
   35.9437   33.5435   28.7678 H   0  0  0  0  0  0  0  0  0  0  0  0
   34.4203   32.5787   28.7438 H   0  0  0  0  0  0  0  0  0  0  0  0
   35.5850   29.1454   33.7155 H   0  0  0  0  0  0  0  0  0  0  0  0
  1  2  1  0
  2  3  2  0
  2  4  1  0
  4  5  2  0
  5  6  1  0
  6  7  2  0
  7  8  1  0
  8  9  2  0
  9 10  1  0
 10 11  2  0
 11 12  1  0
 12 13  2  0
 13 14  1  0
  9 15  1  0
 15 16  2  0
 15 17  1  0
 17 18  2  0
 18 19  1  0
 19 20  2  0
 20 21  1  0
 21 22  1  0
 20 23  1  0
 23 24  2  0
 23 25  1  0
 13  4  1  0
 24 17  1  0
 12  7  1  0
  1 26  1  0
  1 27  1  0
  8 28  1  0
 10 29  1  0
 11 30  1  0
 14 31  1  0
 14 32  1  0
 18 33  1  0
 19 34  1  0
 22 35  1  0
 22 36  1  0
 22 37  1  0
 24 38  1  0
M  END
$$$$
confid_4
     RDKit          3D

 38 40  0  0  0  0  0  0  0  0999 V2000
   24.5700   26.8800   35.5900 N   0  0  0  0  0  0  0  0  0  0  0  0
   25.5000   26.4000   34.6900 C   0  0  0  0  0  0  0  0  0  0  0  0
   25.1700   25.5200   33.9100 O   0  0  0  0  0  0  0  0  0  0  0  0
   26.8400   27.0200   34.7400 C   0  0  0  0  0  0  0  0  0  0  0  0
   27.3800   27.2800   35.9400 N   0  0  0  0  0  0  0  0  0  0  0  0
   28.6200   27.7400   36.0300 N   0  0  0  0  0  0  0  0  0  0  0  0
   29.3800   28.0000   34.9600 C   0  0  0  0  0  0  0  0  0  0  0  0
   30.6700   28.5000   35.1300 C   0  0  0  0  0  0  0  0  0  0  0  0
   31.5400   28.6100   34.0300 C   0  0  0  0  0  0  0  0  0  0  0  0
   31.0900   28.2200   32.7700 C   0  0  0  0  0  0  0  0  0  0  0  0
   29.8000   27.7000   32.6000 C   0  0  0  0  0  0  0  0  0  0  0  0
   28.9600   27.5500   33.7100 C   0  0  0  0  0  0  0  0  0  0  0  0
   27.6600   27.0300   33.5900 C   0  0  0  0  0  0  0  0  0  0  0  0
   27.1600   26.7400   32.3400 N   0  0  0  0  0  0  0  0  0  0  0  0
   32.8894   29.1990   34.2221 C   0  0  0  0  0  0  0  0  0  0  0  0
   33.1123   29.8996   35.2433 O   0  0  0  0  0  0  0  0  0  0  0  0
   33.9911   28.9999   33.2450 C   0  0  0  0  0  0  0  0  0  0  0  0
   34.1589   27.7731   32.5823 C   0  0  0  0  0  0  0  0  0  0  0  0
   35.1795   27.6148   31.6294 C   0  0  0  0  0  0  0  0  0  0  0  0
   36.0446   28.6794   31.3578 C   0  0  0  0  0  0  0  0  0  0  0  0
   37.0722   28.5625   30.4027 O   0  0  0  0  0  0  0  0  0  0  0  0
   37.0663   27.6709   29.2966 C   0  0  0  0  0  0  0  0  0  0  0  0
   35.9367   29.8714   32.0650 C   0  0  0  0  0  0  0  0  0  0  0  0
   34.8997   30.0445   32.9954 C   0  0  0  0  0  0  0  0  0  0  0  0
   37.0340   31.2107   31.7543 Cl  0  0  0  0  0  0  0  0  0  0  0  0
   23.6000   26.4889   35.6091 H   0  0  0  0  0  0  0  0  0  0  0  0
   24.7661   27.7098   36.1903 H   0  0  0  0  0  0  0  0  0  0  0  0
   31.0045   28.7911   36.1167 H   0  0  0  0  0  0  0  0  0  0  0  0
   31.7010   28.3533   31.8892 H   0  0  0  0  0  0  0  0  0  0  0  0
   29.4855   27.4324   31.6043 H   0  0  0  0  0  0  0  0  0  0  0  0
   26.1880   27.0220   32.0742 H   0  0  0  0  0  0  0  0  0  0  0  0
   27.6946   26.1675   31.6519 H   0  0  0  0  0  0  0  0  0  0  0  0
   33.5099   26.9364   32.7977 H   0  0  0  0  0  0  0  0  0  0  0  0
   35.2742   26.6732   31.1160 H   0  0  0  0  0  0  0  0  0  0  0  0
   36.1007   27.7680   28.7531 H   0  0  0  0  0  0  0  0  0  0  0  0
   37.8938   27.9612   28.6121 H   0  0  0  0  0  0  0  0  0  0  0  0
   37.2156   26.6243   29.6549 H   0  0  0  0  0  0  0  0  0  0  0  0
   34.7914   30.9913   33.5095 H   0  0  0  0  0  0  0  0  0  0  0  0
  1  2  1  0
  2  3  2  0
  2  4  1  0
  4  5  2  0
  5  6  1  0
  6  7  2  0
  7  8  1  0
  8  9  2  0
  9 10  1  0
 10 11  2  0
 11 12  1  0
 12 13  2  0
 13 14  1  0
  9 15  1  0
 15 16  2  0
 15 17  1  0
 17 18  2  0
 18 19  1  0
 19 20  2  0
 20 21  1  0
 21 22  1  0
 20 23  1  0
 23 24  2  0
 23 25  1  0
 13  4  1  0
 24 17  1  0
 12  7  1  0
  1 26  1  0
  1 27  1  0
  8 28  1  0
 10 29  1  0
 11 30  1  0
 14 31  1  0
 14 32  1  0
 18 33  1  0
 19 34  1  0
 22 35  1  0
 22 36  1  0
 22 37  1  0
 24 38  1  0
M  END
$$$$
confid_5
     RDKit          3D

 38 40  0  0  0  0  0  0  0  0999 V2000
   24.5700   26.8800   35.5900 N   0  0  0  0  0  0  0  0  0  0  0  0
   25.5000   26.4000   34.6900 C   0  0  0  0  0  0  0  0  0  0  0  0
   25.1700   25.5200   33.9100 O   0  0  0  0  0  0  0  0  0  0  0  0
   26.8400   27.0200   34.7400 C   0  0  0  0  0  0  0  0  0  0  0  0
   27.3800   27.2800   35.9400 N   0  0  0  0  0  0  0  0  0  0  0  0
   28.6200   27.7400   36.0300 N   0  0  0  0  0  0  0  0  0  0  0  0
   29.3800   28.0000   34.9600 C   0  0  0  0  0  0  0  0  0  0  0  0
   30.6700   28.5000   35.1300 C   0  0  0  0  0  0  0  0  0  0  0  0
   31.5400   28.6100   34.0300 C   0  0  0  0  0  0  0  0  0  0  0  0
   31.0900   28.2200   32.7700 C   0  0  0  0  0  0  0  0  0  0  0  0
   29.8000   27.7000   32.6000 C   0  0  0  0  0  0  0  0  0  0  0  0
   28.9600   27.5500   33.7100 C   0  0  0  0  0  0  0  0  0  0  0  0
   27.6600   27.0300   33.5900 C   0  0  0  0  0  0  0  0  0  0  0  0
   27.1600   26.7400   32.3400 N   0  0  0  0  0  0  0  0  0  0  0  0
   32.9251   29.1135   34.1996 C   0  0  0  0  0  0  0  0  0  0  0  0
   33.8357   28.6499   33.4596 O   0  0  0  0  0  0  0  0  0  0  0  0
   33.2782   30.1418   35.2087 C   0  0  0  0  0  0  0  0  0  0  0  0
   32.3751   31.1636   35.5467 C   0  0  0  0  0  0  0  0  0  0  0  0
   32.7240   32.1367   36.4866 C   0  0  0  0  0  0  0  0  0  0  0  0
   33.9905   32.1133   37.1002 C   0  0  0  0  0  0  0  0  0  0  0  0
   34.3772   33.0718   38.0504 O   0  0  0  0  0  0  0  0  0  0  0  0
   33.5540   34.1460   38.4929 C   0  0  0  0  0  0  0  0  0  0  0  0
   34.8992   31.1028   36.7511 C   0  0  0  0  0  0  0  0  0  0  0  0
   34.5475   30.1296   35.8091 C   0  0  0  0  0  0  0  0  0  0  0  0
   36.4922   31.0442   37.4906 Cl  0  0  0  0  0  0  0  0  0  0  0  0
   23.6076   26.4746   35.6186 H   0  0  0  0  0  0  0  0  0  0  0  0
   24.7885   27.6687   36.2395 H   0  0  0  0  0  0  0  0  0  0  0  0
   31.0104   28.7617   36.1249 H   0  0  0  0  0  0  0  0  0  0  0  0
   31.7344   28.3146   31.9043 H   0  0  0  0  0  0  0  0  0  0  0  0
   29.5009   27.4246   31.5992 H   0  0  0  0  0  0  0  0  0  0  0  0
   27.7096   26.1831   31.6494 H   0  0  0  0  0  0  0  0  0  0  0  0
   26.1713   26.9662   32.0917 H   0  0  0  0  0  0  0  0  0  0  0  0
   31.4030   31.2198   35.0731 H   0  0  0  0  0  0  0  0  0  0  0  0
   32.0027   32.9065   36.7244 H   0  0  0  0  0  0  0  0  0  0  0  0
   34.1102   34.7429   39.2443 H   0  0  0  0  0  0  0  0  0  0  0  0
   33.2935   34.8047   37.6377 H   0  0  0  0  0  0  0  0  0  0  0  0
   32.6308   33.7497   38.9661 H   0  0  0  0  0  0  0  0  0  0  0  0
   35.2625   29.3561   35.5555 H   0  0  0  0  0  0  0  0  0  0  0  0
  1  2  1  0
  2  3  2  0
  2  4  1  0
  4  5  2  0
  5  6  1  0
  6  7  2  0
  7  8  1  0
  8  9  2  0
  9 10  1  0
 10 11  2  0
 11 12  1  0
 12 13  2  0
 13 14  1  0
  9 15  1  0
 15 16  2  0
 15 17  1  0
 17 18  2  0
 18 19  1  0
 19 20  2  0
 20 21  1  0
 21 22  1  0
 20 23  1  0
 23 24  2  0
 23 25  1  0
 13  4  1  0
 24 17  1  0
 12  7  1  0
  1 26  1  0
  1 27  1  0
  8 28  1  0
 10 29  1  0
 11 30  1  0
 14 31  1  0
 14 32  1  0
 18 33  1  0
 19 34  1  0
 22 35  1  0
 22 36  1  0
 22 37  1  0
 24 38  1  0
M  END
$$$$
confid_6
     RDKit          3D

 38 40  0  0  0  0  0  0  0  0999 V2000
   24.5700   26.8800   35.5900 N   0  0  0  0  0  0  0  0  0  0  0  0
   25.5000   26.4000   34.6900 C   0  0  0  0  0  0  0  0  0  0  0  0
   25.1700   25.5200   33.9100 O   0  0  0  0  0  0  0  0  0  0  0  0
   26.8400   27.0200   34.7400 C   0  0  0  0  0  0  0  0  0  0  0  0
   27.3800   27.2800   35.9400 N   0  0  0  0  0  0  0  0  0  0  0  0
   28.6200   27.7400   36.0300 N   0  0  0  0  0  0  0  0  0  0  0  0
   29.3800   28.0000   34.9600 C   0  0  0  0  0  0  0  0  0  0  0  0
   30.6700   28.5000   35.1300 C   0  0  0  0  0  0  0  0  0  0  0  0
   31.5400   28.6100   34.0300 C   0  0  0  0  0  0  0  0  0  0  0  0
   31.0900   28.2200   32.7700 C   0  0  0  0  0  0  0  0  0  0  0  0
   29.8000   27.7000   32.6000 C   0  0  0  0  0  0  0  0  0  0  0  0
   28.9600   27.5500   33.7100 C   0  0  0  0  0  0  0  0  0  0  0  0
   27.6600   27.0300   33.5900 C   0  0  0  0  0  0  0  0  0  0  0  0
   27.1600   26.7400   32.3400 N   0  0  0  0  0  0  0  0  0  0  0  0
   32.9011   29.1700   34.2163 C   0  0  0  0  0  0  0  0  0  0  0  0
   33.0785   30.0555   35.0971 O   0  0  0  0  0  0  0  0  0  0  0  0
   34.0609   28.7260   33.4048 C   0  0  0  0  0  0  0  0  0  0  0  0
   35.0958   29.6268   33.1082 C   0  0  0  0  0  0  0  0  0  0  0  0
   36.2007   29.2170   32.3573 C   0  0  0  0  0  0  0  0  0  0  0  0
   36.2971   27.8902   31.8971 C   0  0  0  0  0  0  0  0  0  0  0  0
   37.3897   27.4408   31.1385 O   0  0  0  0  0  0  0  0  0  0  0  0
   38.4942   28.2538   30.7559 C   0  0  0  0  0  0  0  0  0  0  0  0
   35.2715   26.9844   32.2072 C   0  0  0  0  0  0  0  0  0  0  0  0
   34.1665   27.3972   32.9595 C   0  0  0  0  0  0  0  0  0  0  0  0
   35.3625   25.3161   31.6627 Cl  0  0  0  0  0  0  0  0  0  0  0  0
   24.7884   27.6687   36.2395 H   0  0  0  0  0  0  0  0  0  0  0  0
   23.6076   26.4746   35.6186 H   0  0  0  0  0  0  0  0  0  0  0  0
   31.0056   28.7841   36.1208 H   0  0  0  0  0  0  0  0  0  0  0  0
   31.7234   28.3355   31.8993 H   0  0  0  0  0  0  0  0  0  0  0  0
   29.4990   27.4295   31.5985 H   0  0  0  0  0  0  0  0  0  0  0  0
   27.7100   26.1839   31.6491 H   0  0  0  0  0  0  0  0  0  0  0  0
   26.1712   26.9658   32.0917 H   0  0  0  0  0  0  0  0  0  0  0  0
   35.0440   30.6541   33.4478 H   0  0  0  0  0  0  0  0  0  0  0  0
   36.9746   29.9405   32.1406 H   0  0  0  0  0  0  0  0  0  0  0  0
   38.1454   29.1011   30.1284 H   0  0  0  0  0  0  0  0  0  0  0  0
   39.0180   28.6354   31.6577 H   0  0  0  0  0  0  0  0  0  0  0  0
   39.2059   27.6429   30.1638 H   0  0  0  0  0  0  0  0  0  0  0  0
   33.3990   26.6745   33.2071 H   0  0  0  0  0  0  0  0  0  0  0  0
  1  2  1  0
  2  3  2  0
  2  4  1  0
  4  5  2  0
  5  6  1  0
  6  7  2  0
  7  8  1  0
  8  9  2  0
  9 10  1  0
 10 11  2  0
 11 12  1  0
 12 13  2  0
 13 14  1  0
  9 15  1  0
 15 16  2  0
 15 17  1  0
 17 18  2  0
 18 19  1  0
 19 20  2  0
 20 21  1  0
 21 22  1  0
 20 23  1  0
 23 24  2  0
 23 25  1  0
 13  4  1  0
 24 17  1  0
 12  7  1  0
  1 26  1  0
  1 27  1  0
  8 28  1  0
 10 29  1  0
 11 30  1  0
 14 31  1  0
 14 32  1  0
 18 33  1  0
 19 34  1  0
 22 35  1  0
 22 36  1  0
 22 37  1  0
 24 38  1  0
M  END
$$$$
confid_7
     RDKit          3D

 38 40  0  0  0  0  0  0  0  0999 V2000
   24.5700   26.8800   35.5900 N   0  0  0  0  0  0  0  0  0  0  0  0
   25.5000   26.4000   34.6900 C   0  0  0  0  0  0  0  0  0  0  0  0
   25.1700   25.5200   33.9100 O   0  0  0  0  0  0  0  0  0  0  0  0
   26.8400   27.0200   34.7400 C   0  0  0  0  0  0  0  0  0  0  0  0
   27.3800   27.2800   35.9400 N   0  0  0  0  0  0  0  0  0  0  0  0
   28.6200   27.7400   36.0300 N   0  0  0  0  0  0  0  0  0  0  0  0
   29.3800   28.0000   34.9600 C   0  0  0  0  0  0  0  0  0  0  0  0
   30.6700   28.5000   35.1300 C   0  0  0  0  0  0  0  0  0  0  0  0
   31.5400   28.6100   34.0300 C   0  0  0  0  0  0  0  0  0  0  0  0
   31.0900   28.2200   32.7700 C   0  0  0  0  0  0  0  0  0  0  0  0
   29.8000   27.7000   32.6000 C   0  0  0  0  0  0  0  0  0  0  0  0
   28.9600   27.5500   33.7100 C   0  0  0  0  0  0  0  0  0  0  0  0
   27.6600   27.0300   33.5900 C   0  0  0  0  0  0  0  0  0  0  0  0
   27.1600   26.7400   32.3400 N   0  0  0  0  0  0  0  0  0  0  0  0
   32.9249   29.1143   34.1995 C   0  0  0  0  0  0  0  0  0  0  0  0
   33.8358   28.6506   33.4599 O   0  0  0  0  0  0  0  0  0  0  0  0
   33.2772   30.1435   35.2079 C   0  0  0  0  0  0  0  0  0  0  0  0
   34.5467   30.1335   35.8069 C   0  0  0  0  0  0  0  0  0  0  0  0
   34.8958   31.1059   36.7477 C   0  0  0  0  0  0  0  0  0  0  0  0
   33.9822   32.1173   37.0998 C   0  0  0  0  0  0  0  0  0  0  0  0
   34.2945   33.1103   38.0419 O   0  0  0  0  0  0  0  0  0  0  0  0
   35.5362   33.2042   38.7325 C   0  0  0  0  0  0  0  0  0  0  0  0
   32.7192   32.1385   36.4892 C   0  0  0  0  0  0  0  0  0  0  0  0
   32.3723   31.1639   35.5472 C   0  0  0  0  0  0  0  0  0  0  0  0
   31.5565   33.3930   36.8920 Cl  0  0  0  0  0  0  0  0  0  0  0  0
   24.7885   27.6687   36.2395 H   0  0  0  0  0  0  0  0  0  0  0  0
   23.6076   26.4746   35.6186 H   0  0  0  0  0  0  0  0  0  0  0  0
   31.0103   28.7618   36.1249 H   0  0  0  0  0  0  0  0  0  0  0  0
   31.7343   28.3147   31.9043 H   0  0  0  0  0  0  0  0  0  0  0  0
   29.5009   27.4246   31.5992 H   0  0  0  0  0  0  0  0  0  0  0  0
   27.7096   26.1831   31.6494 H   0  0  0  0  0  0  0  0  0  0  0  0
   26.1713   26.9662   32.0917 H   0  0  0  0  0  0  0  0  0  0  0  0
   35.2665   29.3640   35.5557 H   0  0  0  0  0  0  0  0  0  0  0  0
   35.8792   31.0617   37.1952 H   0  0  0  0  0  0  0  0  0  0  0  0
   36.3662   33.3450   38.0084 H   0  0  0  0  0  0  0  0  0  0  0  0
   35.5068   34.0793   39.4134 H   0  0  0  0  0  0  0  0  0  0  0  0
   35.7068   32.2887   39.3374 H   0  0  0  0  0  0  0  0  0  0  0  0
   31.4009   31.2144   35.0712 H   0  0  0  0  0  0  0  0  0  0  0  0
  1  2  1  0
  2  3  2  0
  2  4  1  0
  4  5  2  0
  5  6  1  0
  6  7  2  0
  7  8  1  0
  8  9  2  0
  9 10  1  0
 10 11  2  0
 11 12  1  0
 12 13  2  0
 13 14  1  0
  9 15  1  0
 15 16  2  0
 15 17  1  0
 17 18  2  0
 18 19  1  0
 19 20  2  0
 20 21  1  0
 21 22  1  0
 20 23  1  0
 23 24  2  0
 23 25  1  0
 13  4  1  0
 24 17  1  0
 12  7  1  0
  1 26  1  0
  1 27  1  0
  8 28  1  0
 10 29  1  0
 11 30  1  0
 14 31  1  0
 14 32  1  0
 18 33  1  0
 19 34  1  0
 22 35  1  0
 22 36  1  0
 22 37  1  0
 24 38  1  0
M  END
$$$$
confid_8
     RDKit          3D

 38 40  0  0  0  0  0  0  0  0999 V2000
   24.5700   26.8800   35.5900 N   0  0  0  0  0  0  0  0  0  0  0  0
   25.5000   26.4000   34.6900 C   0  0  0  0  0  0  0  0  0  0  0  0
   25.1700   25.5200   33.9100 O   0  0  0  0  0  0  0  0  0  0  0  0
   26.8400   27.0200   34.7400 C   0  0  0  0  0  0  0  0  0  0  0  0
   27.3800   27.2800   35.9400 N   0  0  0  0  0  0  0  0  0  0  0  0
   28.6200   27.7400   36.0300 N   0  0  0  0  0  0  0  0  0  0  0  0
   29.3800   28.0000   34.9600 C   0  0  0  0  0  0  0  0  0  0  0  0
   30.6700   28.5000   35.1300 C   0  0  0  0  0  0  0  0  0  0  0  0
   31.5400   28.6100   34.0300 C   0  0  0  0  0  0  0  0  0  0  0  0
   31.0900   28.2200   32.7700 C   0  0  0  0  0  0  0  0  0  0  0  0
   29.8000   27.7000   32.6000 C   0  0  0  0  0  0  0  0  0  0  0  0
   28.9600   27.5500   33.7100 C   0  0  0  0  0  0  0  0  0  0  0  0
   27.6600   27.0300   33.5900 C   0  0  0  0  0  0  0  0  0  0  0  0
   27.1600   26.7400   32.3400 N   0  0  0  0  0  0  0  0  0  0  0  0
   32.9212   29.1141   34.2268 C   0  0  0  0  0  0  0  0  0  0  0  0
   33.5116   28.8603   35.3124 O   0  0  0  0  0  0  0  0  0  0  0  0
   33.6330   29.9061   33.1940 C   0  0  0  0  0  0  0  0  0  0  0  0
   35.0285   29.8112   33.0750 C   0  0  0  0  0  0  0  0  0  0  0  0
   35.7123   30.5634   32.1162 C   0  0  0  0  0  0  0  0  0  0  0  0
   35.0116   31.4366   31.2630 C   0  0  0  0  0  0  0  0  0  0  0  0
   35.6621   32.2072   30.2861 O   0  0  0  0  0  0  0  0  0  0  0  0
   37.0663   32.1923   30.0510 C   0  0  0  0  0  0  0  0  0  0  0  0
   33.6188   31.5451   31.3922 C   0  0  0  0  0  0  0  0  0  0  0  0
   32.9366   30.7911   32.3533 C   0  0  0  0  0  0  0  0  0  0  0  0
   32.7106   32.6348   30.3551 Cl  0  0  0  0  0  0  0  0  0  0  0  0
   23.6076   26.4745   35.6186 H   0  0  0  0  0  0  0  0  0  0  0  0
   24.7885   27.6687   36.2396 H   0  0  0  0  0  0  0  0  0  0  0  0
   31.0047   28.7862   36.1205 H   0  0  0  0  0  0  0  0  0  0  0  0
   31.7440   28.2787   31.9090 H   0  0  0  0  0  0  0  0  0  0  0  0
   29.5094   27.3762   31.6097 H   0  0  0  0  0  0  0  0  0  0  0  0
   26.7455   25.8073   32.1267 H   0  0  0  0  0  0  0  0  0  0  0  0
   27.2467   27.4242   31.5557 H   0  0  0  0  0  0  0  0  0  0  0  0
   35.5904   29.1442   33.7174 H   0  0  0  0  0  0  0  0  0  0  0  0
   36.7863   30.4581   32.0472 H   0  0  0  0  0  0  0  0  0  0  0  0
   37.6096   32.5211   30.9620 H   0  0  0  0  0  0  0  0  0  0  0  0
   37.3935   31.1726   29.7570 H   0  0  0  0  0  0  0  0  0  0  0  0
   37.3027   32.8931   29.2243 H   0  0  0  0  0  0  0  0  0  0  0  0
   31.8645   30.9092   32.4510 H   0  0  0  0  0  0  0  0  0  0  0  0
  1  2  1  0
  2  3  2  0
  2  4  1  0
  4  5  2  0
  5  6  1  0
  6  7  2  0
  7  8  1  0
  8  9  2  0
  9 10  1  0
 10 11  2  0
 11 12  1  0
 12 13  2  0
 13 14  1  0
  9 15  1  0
 15 16  2  0
 15 17  1  0
 17 18  2  0
 18 19  1  0
 19 20  2  0
 20 21  1  0
 21 22  1  0
 20 23  1  0
 23 24  2  0
 23 25  1  0
 13  4  1  0
 24 17  1  0
 12  7  1  0
  1 26  1  0
  1 27  1  0
  8 28  1  0
 10 29  1  0
 11 30  1  0
 14 31  1  0
 14 32  1  0
 18 33  1  0
 19 34  1  0
 22 35  1  0
 22 36  1  0
 22 37  1  0
 24 38  1  0
M  END
$$$$
