confid_0
     RDKit          3D

 46 49  0  0  0  0  0  0  0  0999 V2000
   24.5500   26.3900   36.2500 N   0  0  0  0  0  0  0  0  0  0  0  0
   25.6000   26.1300   35.4000 C   0  0  0  0  0  0  0  0  0  0  0  0
   25.4300   25.4300   34.4200 O   0  0  0  0  0  0  0  0  0  0  0  0
   26.9800   26.6300   35.7100 C   0  0  0  0  0  0  0  0  0  0  0  0
   27.3200   26.8200   36.9800 N   0  0  0  0  0  0  0  0  0  0  0  0
   28.4700   27.4000   37.3100 N   0  0  0  0  0  0  0  0  0  0  0  0
   29.4000   27.6300   36.3700 C   0  0  0  0  0  0  0  0  0  0  0  0
   30.6600   28.0500   36.8000 C   0  0  0  0  0  0  0  0  0  0  0  0
   31.5700   28.3600   35.7800 C   0  0  0  0  0  0  0  0  0  0  0  0
   31.3700   28.1000   34.4300 C   0  0  0  0  0  0  0  0  0  0  0  0
   30.1200   27.5900   34.0500 C   0  0  0  0  0  0  0  0  0  0  0  0
   29.1500   27.3400   35.0300 C   0  0  0  0  0  0  0  0  0  0  0  0
   27.8800   26.8900   34.6600 C   0  0  0  0  0  0  0  0  0  0  0  0
   27.4800   26.6100   33.3700 N   0  0  0  0  0  0  0  0  0  0  0  0
   31.0055   28.3141   38.2196 C   0  0  0  0  0  0  0  0  0  0  0  0
   32.1765   27.7761   38.7616 C   0  0  0  0  0  0  0  0  0  0  0  0
   32.5225   28.0325   40.0922 C   0  0  0  0  0  0  0  0  0  0  0  0
   33.7722   27.4472   40.6839 C   0  0  0  0  0  0  0  0  0  0  0  0
   34.2884   28.3045   41.6809 O   0  0  0  0  0  0  0  0  0  0  0  0
   33.3691   28.4000   42.7521 C   0  0  0  0  0  0  0  0  0  0  0  0
   32.0809   28.9617   42.3095 N   0  0  0  0  0  0  0  0  0  0  0  0
   31.6861   28.8004   40.9208 C   0  0  0  0  0  0  0  0  0  0  0  0
   30.5219   29.3931   40.3640 C   0  0  0  0  0  0  0  0  0  0  0  0
   29.7200   30.2381   41.1477 O   0  0  0  0  0  0  0  0  0  0  0  0
   28.5282   30.8790   40.7034 C   0  0  0  0  0  0  0  0  0  0  0  0
   30.1962   29.1366   39.0160 C   0  0  0  0  0  0  0  0  0  0  0  0
   31.1459   29.4025   43.3501 C   0  0  0  0  0  0  0  0  0  0  0  0
   24.6739   26.9932   37.0933 H   0  0  0  0  0  0  0  0  0  0  0  0
   23.6001   26.0040   36.0503 H   0  0  0  0  0  0  0  0  0  0  0  0
   32.5304   28.7762   36.0595 H   0  0  0  0  0  0  0  0  0  0  0  0
   32.1332   28.3209   33.6949 H   0  0  0  0  0  0  0  0  0  0  0  0
   29.9372   27.4182   32.9982 H   0  0  0  0  0  0  0  0  0  0  0  0
   26.5962   27.0149   32.9873 H   0  0  0  0  0  0  0  0  0  0  0  0
   28.1243   26.1388   32.6978 H   0  0  0  0  0  0  0  0  0  0  0  0
   32.8175   27.1520   38.1496 H   0  0  0  0  0  0  0  0  0  0  0  0
   33.5655   26.4312   41.0902 H   0  0  0  0  0  0  0  0  0  0  0  0
   34.5449   27.3366   39.8935 H   0  0  0  0  0  0  0  0  0  0  0  0
   33.2079   27.4055   43.2267 H   0  0  0  0  0  0  0  0  0  0  0  0
   33.8148   29.0662   43.5213 H   0  0  0  0  0  0  0  0  0  0  0  0
   28.1036   31.4715   41.5394 H   0  0  0  0  0  0  0  0  0  0  0  0
   28.7548   31.5665   39.8614 H   0  0  0  0  0  0  0  0  0  0  0  0
   27.7800   30.1203   40.3906 H   0  0  0  0  0  0  0  0  0  0  0  0
   29.3214   29.5903   38.5709 H   0  0  0  0  0  0  0  0  0  0  0  0
   31.5518   29.2031   44.3654 H   0  0  0  0  0  0  0  0  0  0  0  0
   30.9771   30.4961   43.2680 H   0  0  0  0  0  0  0  0  0  0  0  0
   30.1863   28.8506   43.2614 H   0  0  0  0  0  0  0  0  0  0  0  0
  1  2  1  0
  2  3  2  0
  2  4  1  0
  4  5  2  0
  5  6  1  0
  6  7  2  0
  7  8  1  0
  8  9  2  0
  9 10  1  0
 10 11  2  0
 11 12  1  0
 12 13  2  0
 13 14  1  0
  8 15  1  0
 15 16  2  0
 16 17  1  0
 17 18  1  0
 18 19  1  0
 19 20  1  0
 20 21  1  0
 21 22  1  0
 22 23  1  0
 23 24  1  0
 24 25  1  0
 23 26  2  0
 21 27  1  0
 13  4  1  0
 26 15  1  0
 12  7  1  0
 22 17  2  0
  1 28  1  0
  1 29  1  0
  9 30  1  0
 10 31  1  0
 11 32  1  0
 14 33  1  0
 14 34  1  0
 16 35  1  0
 18 36  1  0
 18 37  1  0
 20 38  1  0
 20 39  1  0
 25 40  1  0
 25 41  1  0
 25 42  1  0
 26 43  1  0
 27 44  1  0
 27 45  1  0
 27 46  1  0
M  END
$$$$
confid_1
     RDKit          3D

 46 49  0  0  0  0  0  0  0  0999 V2000
   24.5500   26.3900   36.2500 N   0  0  0  0  0  0  0  0  0  0  0  0
   25.6000   26.1300   35.4000 C   0  0  0  0  0  0  0  0  0  0  0  0
   25.4300   25.4300   34.4200 O   0  0  0  0  0  0  0  0  0  0  0  0
   26.9800   26.6300   35.7100 C   0  0  0  0  0  0  0  0  0  0  0  0
   27.3200   26.8200   36.9800 N   0  0  0  0  0  0  0  0  0  0  0  0
   28.4700   27.4000   37.3100 N   0  0  0  0  0  0  0  0  0  0  0  0
   29.4000   27.6300   36.3700 C   0  0  0  0  0  0  0  0  0  0  0  0
   30.6600   28.0500   36.8000 C   0  0  0  0  0  0  0  0  0  0  0  0
   31.5700   28.3600   35.7800 C   0  0  0  0  0  0  0  0  0  0  0  0
   31.3700   28.1000   34.4300 C   0  0  0  0  0  0  0  0  0  0  0  0
   30.1200   27.5900   34.0500 C   0  0  0  0  0  0  0  0  0  0  0  0
   29.1500   27.3400   35.0300 C   0  0  0  0  0  0  0  0  0  0  0  0
   27.8800   26.8900   34.6600 C   0  0  0  0  0  0  0  0  0  0  0  0
   27.4800   26.6100   33.3700 N   0  0  0  0  0  0  0  0  0  0  0  0
   31.0043   28.2816   38.2261 C   0  0  0  0  0  0  0  0  0  0  0  0
   30.8163   27.2682   39.1718 C   0  0  0  0  0  0  0  0  0  0  0  0
   31.1545   27.4803   40.5120 C   0  0  0  0  0  0  0  0  0  0  0  0
   30.9497   26.3982   41.5328 C   0  0  0  0  0  0  0  0  0  0  0  0
   31.9164   26.5039   42.5574 O   0  0  0  0  0  0  0  0  0  0  0  0
   31.7427   27.7227   43.2546 C   0  0  0  0  0  0  0  0  0  0  0  0
   31.9142   28.8835   42.3636 N   0  0  0  0  0  0  0  0  0  0  0  0
   31.6505   28.7224   40.9441 C   0  0  0  0  0  0  0  0  0  0  0  0
   31.8875   29.7409   39.9832 C   0  0  0  0  0  0  0  0  0  0  0  0
   32.4633   30.9590   40.3778 O   0  0  0  0  0  0  0  0  0  0  0  0
   32.7502   32.0490   39.5072 C   0  0  0  0  0  0  0  0  0  0  0  0
   31.5526   29.5056   38.6334 C   0  0  0  0  0  0  0  0  0  0  0  0
   32.0678   30.1988   42.9941 C   0  0  0  0  0  0  0  0  0  0  0  0
   23.6001   26.0040   36.0503 H   0  0  0  0  0  0  0  0  0  0  0  0
   24.6739   26.9931   37.0934 H   0  0  0  0  0  0  0  0  0  0  0  0
   32.5389   28.7557   36.0595 H   0  0  0  0  0  0  0  0  0  0  0  0
   32.1351   28.3162   33.6954 H   0  0  0  0  0  0  0  0  0  0  0  0
   29.9376   27.4170   32.9984 H   0  0  0  0  0  0  0  0  0  0  0  0
   28.1242   26.1386   32.6979 H   0  0  0  0  0  0  0  0  0  0  0  0
   26.5962   27.0149   32.9873 H   0  0  0  0  0  0  0  0  0  0  0  0
   30.4229   26.3066   38.8633 H   0  0  0  0  0  0  0  0  0  0  0  0
   31.0665   25.4030   41.0531 H   0  0  0  0  0  0  0  0  0  0  0  0
   29.9161   26.4489   41.9439 H   0  0  0  0  0  0  0  0  0  0  0  0
   32.5065   27.7626   44.0603 H   0  0  0  0  0  0  0  0  0  0  0  0
   30.7423   27.7618   43.7426 H   0  0  0  0  0  0  0  0  0  0  0  0
   33.4740   31.7343   38.7260 H   0  0  0  0  0  0  0  0  0  0  0  0
   31.8145   32.4201   39.0384 H   0  0  0  0  0  0  0  0  0  0  0  0
   33.2015   32.8730   40.0967 H   0  0  0  0  0  0  0  0  0  0  0  0
   31.7059   30.2768   37.8909 H   0  0  0  0  0  0  0  0  0  0  0  0
   31.2647   30.8845   42.6500 H   0  0  0  0  0  0  0  0  0  0  0  0
   31.9910   30.1254   44.1005 H   0  0  0  0  0  0  0  0  0  0  0  0
   33.0677   30.6174   42.7569 H   0  0  0  0  0  0  0  0  0  0  0  0
  1  2  1  0
  2  3  2  0
  2  4  1  0
  4  5  2  0
  5  6  1  0
  6  7  2  0
  7  8  1  0
  8  9  2  0
  9 10  1  0
 10 11  2  0
 11 12  1  0
 12 13  2  0
 13 14  1  0
  8 15  1  0
 15 16  2  0
 16 17  1  0
 17 18  1  0
 18 19  1  0
 19 20  1  0
 20 21  1  0
 21 22  1  0
 22 23  1  0
 23 24  1  0
 24 25  1  0
 23 26  2  0
 21 27  1  0
 13  4  1  0
 26 15  1  0
 12  7  1  0
 22 17  2  0
  1 28  1  0
  1 29  1  0
  9 30  1  0
 10 31  1  0
 11 32  1  0
 14 33  1  0
 14 34  1  0
 16 35  1  0
 18 36  1  0
 18 37  1  0
 20 38  1  0
 20 39  1  0
 25 40  1  0
 25 41  1  0
 25 42  1  0
 26 43  1  0
 27 44  1  0
 27 45  1  0
 27 46  1  0
M  END
$$$$
confid_2
     RDKit          3D

 46 49  0  0  0  0  0  0  0  0999 V2000
   24.5500   26.3900   36.2500 N   0  0  0  0  0  0  0  0  0  0  0  0
   25.6000   26.1300   35.4000 C   0  0  0  0  0  0  0  0  0  0  0  0
   25.4300   25.4300   34.4200 O   0  0  0  0  0  0  0  0  0  0  0  0
   26.9800   26.6300   35.7100 C   0  0  0  0  0  0  0  0  0  0  0  0
   27.3200   26.8200   36.9800 N   0  0  0  0  0  0  0  0  0  0  0  0
   28.4700   27.4000   37.3100 N   0  0  0  0  0  0  0  0  0  0  0  0
   29.4000   27.6300   36.3700 C   0  0  0  0  0  0  0  0  0  0  0  0
   30.6600   28.0500   36.8000 C   0  0  0  0  0  0  0  0  0  0  0  0
   31.5700   28.3600   35.7800 C   0  0  0  0  0  0  0  0  0  0  0  0
   31.3700   28.1000   34.4300 C   0  0  0  0  0  0  0  0  0  0  0  0
   30.1200   27.5900   34.0500 C   0  0  0  0  0  0  0  0  0  0  0  0
   29.1500   27.3400   35.0300 C   0  0  0  0  0  0  0  0  0  0  0  0
   27.8800   26.8900   34.6600 C   0  0  0  0  0  0  0  0  0  0  0  0
   27.4800   26.6100   33.3700 N   0  0  0  0  0  0  0  0  0  0  0  0
   31.0046   28.2800   38.2264 C   0  0  0  0  0  0  0  0  0  0  0  0
   31.5580   29.4997   38.6313 C   0  0  0  0  0  0  0  0  0  0  0  0
   31.8793   29.7222   39.9744 C   0  0  0  0  0  0  0  0  0  0  0  0
   32.5273   31.0218   40.3896 C   0  0  0  0  0  0  0  0  0  0  0  0
   32.3459   31.2910   41.7680 O   0  0  0  0  0  0  0  0  0  0  0  0
   32.8491   30.2160   42.5352 C   0  0  0  0  0  0  0  0  0  0  0  0
   32.0283   29.0185   42.3090 N   0  0  0  0  0  0  0  0  0  0  0  0
   31.6783   28.7136   40.9366 C   0  0  0  0  0  0  0  0  0  0  0  0
   31.1533   27.4609   40.5285 C   0  0  0  0  0  0  0  0  0  0  0  0
   30.9982   26.4278   41.4665 O   0  0  0  0  0  0  0  0  0  0  0  0
   30.4759   25.1344   41.1790 C   0  0  0  0  0  0  0  0  0  0  0  0
   30.8139   27.2652   39.1744 C   0  0  0  0  0  0  0  0  0  0  0  0
   31.4442   28.3091   43.4535 C   0  0  0  0  0  0  0  0  0  0  0  0
   24.6740   26.9931   37.0934 H   0  0  0  0  0  0  0  0  0  0  0  0
   23.6001   26.0041   36.0503 H   0  0  0  0  0  0  0  0  0  0  0  0
   32.5390   28.7554   36.0595 H   0  0  0  0  0  0  0  0  0  0  0  0
   32.1351   28.3161   33.6954 H   0  0  0  0  0  0  0  0  0  0  0  0
   29.9376   27.4170   32.9984 H   0  0  0  0  0  0  0  0  0  0  0  0
   26.5962   27.0149   32.9873 H   0  0  0  0  0  0  0  0  0  0  0  0
   28.1242   26.1386   32.6979 H   0  0  0  0  0  0  0  0  0  0  0  0
   31.7283   30.2845   37.9035 H   0  0  0  0  0  0  0  0  0  0  0  0
   32.0718   31.8571   39.8162 H   0  0  0  0  0  0  0  0  0  0  0  0
   33.6106   31.0004   40.1355 H   0  0  0  0  0  0  0  0  0  0  0  0
   32.8388   30.5179   43.6033 H   0  0  0  0  0  0  0  0  0  0  0  0
   33.9108   29.9982   42.2770 H   0  0  0  0  0  0  0  0  0  0  0  0
   30.4603   24.5355   42.1124 H   0  0  0  0  0  0  0  0  0  0  0  0
   31.1209   24.6178   40.4373 H   0  0  0  0  0  0  0  0  0  0  0  0
   29.4376   25.2184   40.7941 H   0  0  0  0  0  0  0  0  0  0  0  0
   30.4226   26.3132   38.8421 H   0  0  0  0  0  0  0  0  0  0  0  0
   31.5916   28.8681   44.4010 H   0  0  0  0  0  0  0  0  0  0  0  0
   31.9320   27.3199   43.5734 H   0  0  0  0  0  0  0  0  0  0  0  0
   30.3502   28.1853   43.3070 H   0  0  0  0  0  0  0  0  0  0  0  0
  1  2  1  0
  2  3  2  0
  2  4  1  0
  4  5  2  0
  5  6  1  0
  6  7  2  0
  7  8  1  0
  8  9  2  0
  9 10  1  0
 10 11  2  0
 11 12  1  0
 12 13  2  0
 13 14  1  0
  8 15  1  0
 15 16  2  0
 16 17  1  0
 17 18  1  0
 18 19  1  0
 19 20  1  0
 20 21  1  0
 21 22  1  0
 22 23  1  0
 23 24  1  0
 24 25  1  0
 23 26  2  0
 21 27  1  0
 13  4  1  0
 26 15  1  0
 12  7  1  0
 22 17  2  0
  1 28  1  0
  1 29  1  0
  9 30  1  0
 10 31  1  0
 11 32  1  0
 14 33  1  0
 14 34  1  0
 16 35  1  0
 18 36  1  0
 18 37  1  0
 20 38  1  0
 20 39  1  0
 25 40  1  0
 25 41  1  0
 25 42  1  0
 26 43  1  0
 27 44  1  0
 27 45  1  0
 27 46  1  0
M  END
$$$$
confid_3
     RDKit          3D

 46 49  0  0  0  0  0  0  0  0999 V2000
   24.5500   26.3900   36.2500 N   0  0  0  0  0  0  0  0  0  0  0  0
   25.6000   26.1300   35.4000 C   0  0  0  0  0  0  0  0  0  0  0  0
   25.4300   25.4300   34.4200 O   0  0  0  0  0  0  0  0  0  0  0  0
   26.9800   26.6300   35.7100 C   0  0  0  0  0  0  0  0  0  0  0  0
   27.3200   26.8200   36.9800 N   0  0  0  0  0  0  0  0  0  0  0  0
   28.4700   27.4000   37.3100 N   0  0  0  0  0  0  0  0  0  0  0  0
   29.4000   27.6300   36.3700 C   0  0  0  0  0  0  0  0  0  0  0  0
   30.6600   28.0500   36.8000 C   0  0  0  0  0  0  0  0  0  0  0  0
   31.5700   28.3600   35.7800 C   0  0  0  0  0  0  0  0  0  0  0  0
   31.3700   28.1000   34.4300 C   0  0  0  0  0  0  0  0  0  0  0  0
   30.1200   27.5900   34.0500 C   0  0  0  0  0  0  0  0  0  0  0  0
   29.1500   27.3400   35.0300 C   0  0  0  0  0  0  0  0  0  0  0  0
   27.8800   26.8900   34.6600 C   0  0  0  0  0  0  0  0  0  0  0  0
   27.4800   26.6100   33.3700 N   0  0  0  0  0  0  0  0  0  0  0  0
   31.0074   28.3126   38.2193 C   0  0  0  0  0  0  0  0  0  0  0  0
   30.1990   29.1304   39.0162 C   0  0  0  0  0  0  0  0  0  0  0  0
   30.5404   29.3763   40.3499 C   0  0  0  0  0  0  0  0  0  0  0  0
   29.6756   30.2507   41.2112 C   0  0  0  0  0  0  0  0  0  0  0  0
   29.7528   29.8365   42.5594 O   0  0  0  0  0  0  0  0  0  0  0  0
   31.0713   30.0165   43.0399 C   0  0  0  0  0  0  0  0  0  0  0  0
   32.0400   29.2135   42.2734 N   0  0  0  0  0  0  0  0  0  0  0  0
   31.7249   28.8570   40.9005 C   0  0  0  0  0  0  0  0  0  0  0  0
   32.5399   28.0087   40.1043 C   0  0  0  0  0  0  0  0  0  0  0  0
   33.6874   27.4164   40.6552 O   0  0  0  0  0  0  0  0  0  0  0  0
   34.5790   26.5533   39.9564 C   0  0  0  0  0  0  0  0  0  0  0  0
   32.1726   27.7595   38.7656 C   0  0  0  0  0  0  0  0  0  0  0  0
   33.3820   29.0545   42.8437 C   0  0  0  0  0  0  0  0  0  0  0  0
   24.6739   26.9932   37.0934 H   0  0  0  0  0  0  0  0  0  0  0  0
   23.6001   26.0039   36.0504 H   0  0  0  0  0  0  0  0  0  0  0  0
   32.5312   28.7743   36.0599 H   0  0  0  0  0  0  0  0  0  0  0  0
   32.1353   28.3153   33.6954 H   0  0  0  0  0  0  0  0  0  0  0  0
   29.9365   27.3924   33.0016 H   0  0  0  0  0  0  0  0  0  0  0  0
   27.5826   27.3394   32.6301 H   0  0  0  0  0  0  0  0  0  0  0  0
   27.4182   25.6173   33.0515 H   0  0  0  0  0  0  0  0  0  0  0  0
   29.3088   29.5857   38.5987 H   0  0  0  0  0  0  0  0  0  0  0  0
   29.9734   31.3176   41.0970 H   0  0  0  0  0  0  0  0  0  0  0  0
   28.6164   30.1661   40.8870 H   0  0  0  0  0  0  0  0  0  0  0  0
   31.3607   31.0916   43.0114 H   0  0  0  0  0  0  0  0  0  0  0  0
   31.0893   29.6964   44.1036 H   0  0  0  0  0  0  0  0  0  0  0  0
   35.0276   27.0862   39.0915 H   0  0  0  0  0  0  0  0  0  0  0  0
   35.3937   26.2434   40.6424 H   0  0  0  0  0  0  0  0  0  0  0  0
   34.0409   25.6449   39.6123 H   0  0  0  0  0  0  0  0  0  0  0  0
   32.7830   27.1219   38.1401 H   0  0  0  0  0  0  0  0  0  0  0  0
   33.5743   27.9843   43.0652 H   0  0  0  0  0  0  0  0  0  0  0  0
   34.1456   29.4529   42.1425 H   0  0  0  0  0  0  0  0  0  0  0  0
   33.4823   29.6157   43.7978 H   0  0  0  0  0  0  0  0  0  0  0  0
  1  2  1  0
  2  3  2  0
  2  4  1  0
  4  5  2  0
  5  6  1  0
  6  7  2  0
  7  8  1  0
  8  9  2  0
  9 10  1  0
 10 11  2  0
 11 12  1  0
 12 13  2  0
 13 14  1  0
  8 15  1  0
 15 16  2  0
 16 17  1  0
 17 18  1  0
 18 19  1  0
 19 20  1  0
 20 21  1  0
 21 22  1  0
 22 23  1  0
 23 24  1  0
 24 25  1  0
 23 26  2  0
 21 27  1  0
 13  4  1  0
 26 15  1  0
 12  7  1  0
 22 17  2  0
  1 28  1  0
  1 29  1  0
  9 30  1  0
 10 31  1  0
 11 32  1  0
 14 33  1  0
 14 34  1  0
 16 35  1  0
 18 36  1  0
 18 37  1  0
 20 38  1  0
 20 39  1  0
 25 40  1  0
 25 41  1  0
 25 42  1  0
 26 43  1  0
 27 44  1  0
 27 45  1  0
 27 46  1  0
M  END
$$$$
confid_4
     RDKit          3D

 46 49  0  0  0  0  0  0  0  0999 V2000
   24.5500   26.3900   36.2500 N   0  0  0  0  0  0  0  0  0  0  0  0
   25.6000   26.1300   35.4000 C   0  0  0  0  0  0  0  0  0  0  0  0
   25.4300   25.4300   34.4200 O   0  0  0  0  0  0  0  0  0  0  0  0
   26.9800   26.6300   35.7100 C   0  0  0  0  0  0  0  0  0  0  0  0
   27.3200   26.8200   36.9800 N   0  0  0  0  0  0  0  0  0  0  0  0
   28.4700   27.4000   37.3100 N   0  0  0  0  0  0  0  0  0  0  0  0
   29.4000   27.6300   36.3700 C   0  0  0  0  0  0  0  0  0  0  0  0
   30.6600   28.0500   36.8000 C   0  0  0  0  0  0  0  0  0  0  0  0
   31.5700   28.3600   35.7800 C   0  0  0  0  0  0  0  0  0  0  0  0
   31.3700   28.1000   34.4300 C   0  0  0  0  0  0  0  0  0  0  0  0
   30.1200   27.5900   34.0500 C   0  0  0  0  0  0  0  0  0  0  0  0
   29.1500   27.3400   35.0300 C   0  0  0  0  0  0  0  0  0  0  0  0
   27.8800   26.8900   34.6600 C   0  0  0  0  0  0  0  0  0  0  0  0
   27.4800   26.6100   33.3700 N   0  0  0  0  0  0  0  0  0  0  0  0
   31.0073   28.3129   38.2191 C   0  0  0  0  0  0  0  0  0  0  0  0
   30.2007   29.1345   39.0147 C   0  0  0  0  0  0  0  0  0  0  0  0
   30.5492   29.3977   40.3435 C   0  0  0  0  0  0  0  0  0  0  0  0
   29.6351   30.2299   41.2115 C   0  0  0  0  0  0  0  0  0  0  0  0
   30.3177   30.7951   42.3159 O   0  0  0  0  0  0  0  0  0  0  0  0
   30.9305   29.7717   43.0737 C   0  0  0  0  0  0  0  0  0  0  0  0
   32.0061   29.1501   42.2889 N   0  0  0  0  0  0  0  0  0  0  0  0
   31.7085   28.8301   40.9074 C   0  0  0  0  0  0  0  0  0  0  0  0
   32.5243   27.9855   40.1114 C   0  0  0  0  0  0  0  0  0  0  0  0
   33.6592   27.3777   40.6712 O   0  0  0  0  0  0  0  0  0  0  0  0
   34.5520   26.5143   39.9742 C   0  0  0  0  0  0  0  0  0  0  0  0
   32.1683   27.7528   38.7672 C   0  0  0  0  0  0  0  0  0  0  0  0
   33.3577   29.0560   42.8535 C   0  0  0  0  0  0  0  0  0  0  0  0
   24.6739   26.9932   37.0933 H   0  0  0  0  0  0  0  0  0  0  0  0
   23.6001   26.0040   36.0503 H   0  0  0  0  0  0  0  0  0  0  0  0
   32.5308   28.7753   36.0599 H   0  0  0  0  0  0  0  0  0  0  0  0
   32.1333   28.3207   33.6949 H   0  0  0  0  0  0  0  0  0  0  0  0
   29.9372   27.4181   32.9983 H   0  0  0  0  0  0  0  0  0  0  0  0
   26.5962   27.0149   32.9873 H   0  0  0  0  0  0  0  0  0  0  0  0
   28.1243   26.1388   32.6978 H   0  0  0  0  0  0  0  0  0  0  0  0
   29.3070   29.5838   38.5981 H   0  0  0  0  0  0  0  0  0  0  0  0
   28.7781   29.6101   41.5581 H   0  0  0  0  0  0  0  0  0  0  0  0
   29.2153   31.0623   40.6077 H   0  0  0  0  0  0  0  0  0  0  0  0
   31.3208   30.2209   44.0107 H   0  0  0  0  0  0  0  0  0  0  0  0
   30.1904   28.9962   43.3774 H   0  0  0  0  0  0  0  0  0  0  0  0
   34.0104   25.6141   39.6143 H   0  0  0  0  0  0  0  0  0  0  0  0
   35.0150   27.0522   39.1201 H   0  0  0  0  0  0  0  0  0  0  0  0
   35.3558   26.1907   40.6665 H   0  0  0  0  0  0  0  0  0  0  0  0
   32.7791   27.1154   38.1418 H   0  0  0  0  0  0  0  0  0  0  0  0
   33.6065   27.9952   43.0624 H   0  0  0  0  0  0  0  0  0  0  0  0
   34.0959   29.4952   42.1494 H   0  0  0  0  0  0  0  0  0  0  0  0
   33.4415   29.6102   43.8115 H   0  0  0  0  0  0  0  0  0  0  0  0
  1  2  1  0
  2  3  2  0
  2  4  1  0
  4  5  2  0
  5  6  1  0
  6  7  2  0
  7  8  1  0
  8  9  2  0
  9 10  1  0
 10 11  2  0
 11 12  1  0
 12 13  2  0
 13 14  1  0
  8 15  1  0
 15 16  2  0
 16 17  1  0
 17 18  1  0
 18 19  1  0
 19 20  1  0
 20 21  1  0
 21 22  1  0
 22 23  1  0
 23 24  1  0
 24 25  1  0
 23 26  2  0
 21 27  1  0
 13  4  1  0
 26 15  1  0
 12  7  1  0
 22 17  2  0
  1 28  1  0
  1 29  1  0
  9 30  1  0
 10 31  1  0
 11 32  1  0
 14 33  1  0
 14 34  1  0
 16 35  1  0
 18 36  1  0
 18 37  1  0
 20 38  1  0
 20 39  1  0
 25 40  1  0
 25 41  1  0
 25 42  1  0
 26 43  1  0
 27 44  1  0
 27 45  1  0
 27 46  1  0
M  END
$$$$
confid_5
     RDKit          3D

 46 49  0  0  0  0  0  0  0  0999 V2000
   24.5500   26.3900   36.2500 N   0  0  0  0  0  0  0  0  0  0  0  0
   25.6000   26.1300   35.4000 C   0  0  0  0  0  0  0  0  0  0  0  0
   25.4300   25.4300   34.4200 O   0  0  0  0  0  0  0  0  0  0  0  0
   26.9800   26.6300   35.7100 C   0  0  0  0  0  0  0  0  0  0  0  0
   27.3200   26.8200   36.9800 N   0  0  0  0  0  0  0  0  0  0  0  0
   28.4700   27.4000   37.3100 N   0  0  0  0  0  0  0  0  0  0  0  0
   29.4000   27.6300   36.3700 C   0  0  0  0  0  0  0  0  0  0  0  0
   30.6600   28.0500   36.8000 C   0  0  0  0  0  0  0  0  0  0  0  0
   31.5700   28.3600   35.7800 C   0  0  0  0  0  0  0  0  0  0  0  0
   31.3700   28.1000   34.4300 C   0  0  0  0  0  0  0  0  0  0  0  0
   30.1200   27.5900   34.0500 C   0  0  0  0  0  0  0  0  0  0  0  0
   29.1500   27.3400   35.0300 C   0  0  0  0  0  0  0  0  0  0  0  0
   27.8800   26.8900   34.6600 C   0  0  0  0  0  0  0  0  0  0  0  0
   27.4800   26.6100   33.3700 N   0  0  0  0  0  0  0  0  0  0  0  0
   31.0045   28.2808   38.2263 C   0  0  0  0  0  0  0  0  0  0  0  0
   30.8135   27.2672   39.1718 C   0  0  0  0  0  0  0  0  0  0  0  0
   31.1332   27.4813   40.5165 C   0  0  0  0  0  0  0  0  0  0  0  0
   30.9791   26.3596   41.5160 C   0  0  0  0  0  0  0  0  0  0  0  0
   30.8718   26.8405   42.8436 O   0  0  0  0  0  0  0  0  0  0  0  0
   31.9982   27.6346   43.1568 C   0  0  0  0  0  0  0  0  0  0  0  0
   31.9824   28.8597   42.3456 N   0  0  0  0  0  0  0  0  0  0  0  0
   31.6803   28.7090   40.9368 C   0  0  0  0  0  0  0  0  0  0  0  0
   31.9128   29.7287   39.9788 C   0  0  0  0  0  0  0  0  0  0  0  0
   32.5071   30.9377   40.3740 O   0  0  0  0  0  0  0  0  0  0  0  0
   32.7934   32.0300   39.5062 C   0  0  0  0  0  0  0  0  0  0  0  0
   31.5593   29.5022   38.6329 C   0  0  0  0  0  0  0  0  0  0  0  0
   32.0722   30.1692   43.0024 C   0  0  0  0  0  0  0  0  0  0  0  0
   23.6001   26.0039   36.0504 H   0  0  0  0  0  0  0  0  0  0  0  0
   24.6740   26.9931   37.0934 H   0  0  0  0  0  0  0  0  0  0  0  0
   32.5394   28.7543   36.0596 H   0  0  0  0  0  0  0  0  0  0  0  0
   32.1370   28.3108   33.6959 H   0  0  0  0  0  0  0  0  0  0  0  0
   29.9368   27.3914   33.0017 H   0  0  0  0  0  0  0  0  0  0  0  0
   27.4181   25.6173   33.0515 H   0  0  0  0  0  0  0  0  0  0  0  0
   27.5828   27.3393   32.6300 H   0  0  0  0  0  0  0  0  0  0  0  0
   30.4277   26.3034   38.8604 H   0  0  0  0  0  0  0  0  0  0  0  0
   31.8345   25.6535   41.4246 H   0  0  0  0  0  0  0  0  0  0  0  0
   30.0551   25.7882   41.2843 H   0  0  0  0  0  0  0  0  0  0  0  0
   31.9673   27.8672   44.2417 H   0  0  0  0  0  0  0  0  0  0  0  0
   32.9465   27.0778   42.9783 H   0  0  0  0  0  0  0  0  0  0  0  0
   33.2606   32.8460   40.0945 H   0  0  0  0  0  0  0  0  0  0  0  0
   31.8554   32.4130   39.0517 H   0  0  0  0  0  0  0  0  0  0  0  0
   33.5037   31.7127   38.7137 H   0  0  0  0  0  0  0  0  0  0  0  0
   31.7115   30.2748   37.8915 H   0  0  0  0  0  0  0  0  0  0  0  0
   31.2360   30.8203   42.6700 H   0  0  0  0  0  0  0  0  0  0  0  0
   33.0474   30.6432   42.7675 H   0  0  0  0  0  0  0  0  0  0  0  0
   32.0050   30.0795   44.1067 H   0  0  0  0  0  0  0  0  0  0  0  0
  1  2  1  0
  2  3  2  0
  2  4  1  0
  4  5  2  0
  5  6  1  0
  6  7  2  0
  7  8  1  0
  8  9  2  0
  9 10  1  0
 10 11  2  0
 11 12  1  0
 12 13  2  0
 13 14  1  0
  8 15  1  0
 15 16  2  0
 16 17  1  0
 17 18  1  0
 18 19  1  0
 19 20  1  0
 20 21  1  0
 21 22  1  0
 22 23  1  0
 23 24  1  0
 24 25  1  0
 23 26  2  0
 21 27  1  0
 13  4  1  0
 26 15  1  0
 12  7  1  0
 22 17  2  0
  1 28  1  0
  1 29  1  0
  9 30  1  0
 10 31  1  0
 11 32  1  0
 14 33  1  0
 14 34  1  0
 16 35  1  0
 18 36  1  0
 18 37  1  0
 20 38  1  0
 20 39  1  0
 25 40  1  0
 25 41  1  0
 25 42  1  0
 26 43  1  0
 27 44  1  0
 27 45  1  0
 27 46  1  0
M  END
$$$$
confid_6
     RDKit          3D

 46 49  0  0  0  0  0  0  0  0999 V2000
   24.5500   26.3900   36.2500 N   0  0  0  0  0  0  0  0  0  0  0  0
   25.6000   26.1300   35.4000 C   0  0  0  0  0  0  0  0  0  0  0  0
   25.4300   25.4300   34.4200 O   0  0  0  0  0  0  0  0  0  0  0  0
   26.9800   26.6300   35.7100 C   0  0  0  0  0  0  0  0  0  0  0  0
   27.3200   26.8200   36.9800 N   0  0  0  0  0  0  0  0  0  0  0  0
   28.4700   27.4000   37.3100 N   0  0  0  0  0  0  0  0  0  0  0  0
   29.4000   27.6300   36.3700 C   0  0  0  0  0  0  0  0  0  0  0  0
   30.6600   28.0500   36.8000 C   0  0  0  0  0  0  0  0  0  0  0  0
   31.5700   28.3600   35.7800 C   0  0  0  0  0  0  0  0  0  0  0  0
   31.3700   28.1000   34.4300 C   0  0  0  0  0  0  0  0  0  0  0  0
   30.1200   27.5900   34.0500 C   0  0  0  0  0  0  0  0  0  0  0  0
   29.1500   27.3400   35.0300 C   0  0  0  0  0  0  0  0  0  0  0  0
   27.8800   26.8900   34.6600 C   0  0  0  0  0  0  0  0  0  0  0  0
   27.4800   26.6100   33.3700 N   0  0  0  0  0  0  0  0  0  0  0  0
   31.0051   28.2798   38.2264 C   0  0  0  0  0  0  0  0  0  0  0  0
   31.5603   29.4983   38.6309 C   0  0  0  0  0  0  0  0  0  0  0  0
   31.8985   29.7107   39.9713 C   0  0  0  0  0  0  0  0  0  0  0  0
   32.4850   31.0202   40.4136 C   0  0  0  0  0  0  0  0  0  0  0  0
   33.3482   30.8217   41.5140 O   0  0  0  0  0  0  0  0  0  0  0  0
   32.6088   30.3433   42.6213 C   0  0  0  0  0  0  0  0  0  0  0  0
   31.9665   29.0511   42.3240 N   0  0  0  0  0  0  0  0  0  0  0  0
   31.6512   28.7262   40.9436 C   0  0  0  0  0  0  0  0  0  0  0  0
   31.1305   27.4700   40.5342 C   0  0  0  0  0  0  0  0  0  0  0  0
   30.9569   26.4410   41.4735 O   0  0  0  0  0  0  0  0  0  0  0  0
   30.4361   25.1475   41.1836 C   0  0  0  0  0  0  0  0  0  0  0  0
   30.8096   27.2674   39.1759 C   0  0  0  0  0  0  0  0  0  0  0  0
   31.4288   28.2906   43.4571 C   0  0  0  0  0  0  0  0  0  0  0  0
   24.6740   26.9930   37.0935 H   0  0  0  0  0  0  0  0  0  0  0  0
   23.6001   26.0040   36.0504 H   0  0  0  0  0  0  0  0  0  0  0  0
   32.5394   28.7543   36.0596 H   0  0  0  0  0  0  0  0  0  0  0  0
   32.1370   28.3107   33.6959 H   0  0  0  0  0  0  0  0  0  0  0  0
   29.9368   27.3913   33.0017 H   0  0  0  0  0  0  0  0  0  0  0  0
   27.4181   25.6173   33.0515 H   0  0  0  0  0  0  0  0  0  0  0  0
   27.5828   27.3393   32.6300 H   0  0  0  0  0  0  0  0  0  0  0  0
   31.7224   30.2868   37.9053 H   0  0  0  0  0  0  0  0  0  0  0  0
   33.0804   31.4626   39.5866 H   0  0  0  0  0  0  0  0  0  0  0  0
   31.6729   31.7411   40.6602 H   0  0  0  0  0  0  0  0  0  0  0  0
   31.8416   31.0862   42.9371 H   0  0  0  0  0  0  0  0  0  0  0  0
   33.3152   30.2154   43.4691 H   0  0  0  0  0  0  0  0  0  0  0  0
   30.4043   24.5529   42.1194 H   0  0  0  0  0  0  0  0  0  0  0  0
   31.0915   24.6260   40.4546 H   0  0  0  0  0  0  0  0  0  0  0  0
   29.4042   25.2321   40.7821 H   0  0  0  0  0  0  0  0  0  0  0  0
   30.4204   26.3147   38.8433 H   0  0  0  0  0  0  0  0  0  0  0  0
   31.9689   27.3262   43.5555 H   0  0  0  0  0  0  0  0  0  0  0  0
   31.5599   28.8450   44.4115 H   0  0  0  0  0  0  0  0  0  0  0  0
   30.3404   28.1175   43.3201 H   0  0  0  0  0  0  0  0  0  0  0  0
  1  2  1  0
  2  3  2  0
  2  4  1  0
  4  5  2  0
  5  6  1  0
  6  7  2  0
  7  8  1  0
  8  9  2  0
  9 10  1  0
 10 11  2  0
 11 12  1  0
 12 13  2  0
 13 14  1  0
  8 15  1  0
 15 16  2  0
 16 17  1  0
 17 18  1  0
 18 19  1  0
 19 20  1  0
 20 21  1  0
 21 22  1  0
 22 23  1  0
 23 24  1  0
 24 25  1  0
 23 26  2  0
 21 27  1  0
 13  4  1  0
 26 15  1  0
 12  7  1  0
 22 17  2  0
  1 28  1  0
  1 29  1  0
  9 30  1  0
 10 31  1  0
 11 32  1  0
 14 33  1  0
 14 34  1  0
 16 35  1  0
 18 36  1  0
 18 37  1  0
 20 38  1  0
 20 39  1  0
 25 40  1  0
 25 41  1  0
 25 42  1  0
 26 43  1  0
 27 44  1  0
 27 45  1  0
 27 46  1  0
M  END
$$$$
confid_7
     RDKit          3D

 46 49  0  0  0  0  0  0  0  0999 V2000
   24.5500   26.3900   36.2500 N   0  0  0  0  0  0  0  0  0  0  0  0
   25.6000   26.1300   35.4000 C   0  0  0  0  0  0  0  0  0  0  0  0
   25.4300   25.4300   34.4200 O   0  0  0  0  0  0  0  0  0  0  0  0
   26.9800   26.6300   35.7100 C   0  0  0  0  0  0  0  0  0  0  0  0
   27.3200   26.8200   36.9800 N   0  0  0  0  0  0  0  0  0  0  0  0
   28.4700   27.4000   37.3100 N   0  0  0  0  0  0  0  0  0  0  0  0
   29.4000   27.6300   36.3700 C   0  0  0  0  0  0  0  0  0  0  0  0
   30.6600   28.0500   36.8000 C   0  0  0  0  0  0  0  0  0  0  0  0
   31.5700   28.3600   35.7800 C   0  0  0  0  0  0  0  0  0  0  0  0
   31.3700   28.1000   34.4300 C   0  0  0  0  0  0  0  0  0  0  0  0
   30.1200   27.5900   34.0500 C   0  0  0  0  0  0  0  0  0  0  0  0
   29.1500   27.3400   35.0300 C   0  0  0  0  0  0  0  0  0  0  0  0
   27.8800   26.8900   34.6600 C   0  0  0  0  0  0  0  0  0  0  0  0
   27.4800   26.6100   33.3700 N   0  0  0  0  0  0  0  0  0  0  0  0
   31.0065   28.3141   38.2191 C   0  0  0  0  0  0  0  0  0  0  0  0
   32.1670   27.7582   38.7652 C   0  0  0  0  0  0  0  0  0  0  0  0
   32.5082   28.0033   40.0991 C   0  0  0  0  0  0  0  0  0  0  0  0
   33.7495   27.4029   40.6933 C   0  0  0  0  0  0  0  0  0  0  0  0
   33.5648   27.1668   42.0737 O   0  0  0  0  0  0  0  0  0  0  0  0
   33.3776   28.3964   42.7481 C   0  0  0  0  0  0  0  0  0  0  0  0
   32.1834   29.1057   42.2565 N   0  0  0  0  0  0  0  0  0  0  0  0
   31.7261   28.8527   40.9008 C   0  0  0  0  0  0  0  0  0  0  0  0
   30.5340   29.4044   40.3603 C   0  0  0  0  0  0  0  0  0  0  0  0
   29.6968   30.1943   41.1643 O   0  0  0  0  0  0  0  0  0  0  0  0
   28.4754   30.7895   40.7374 C   0  0  0  0  0  0  0  0  0  0  0  0
   30.1990   29.1371   39.0166 C   0  0  0  0  0  0  0  0  0  0  0  0
   31.6885   30.2273   43.0617 C   0  0  0  0  0  0  0  0  0  0  0  0
   23.6001   26.0040   36.0503 H   0  0  0  0  0  0  0  0  0  0  0  0
   24.6739   26.9932   37.0933 H   0  0  0  0  0  0  0  0  0  0  0  0
   32.5306   28.7756   36.0598 H   0  0  0  0  0  0  0  0  0  0  0  0
   32.1333   28.3207   33.6949 H   0  0  0  0  0  0  0  0  0  0  0  0
   29.9372   27.4181   32.9983 H   0  0  0  0  0  0  0  0  0  0  0  0
   28.1243   26.1388   32.6978 H   0  0  0  0  0  0  0  0  0  0  0  0
   26.5962   27.0149   32.9873 H   0  0  0  0  0  0  0  0  0  0  0  0
   32.7980   27.1210   38.1564 H   0  0  0  0  0  0  0  0  0  0  0  0
   33.9659   26.4287   40.2052 H   0  0  0  0  0  0  0  0  0  0  0  0
   34.6238   28.0675   40.5091 H   0  0  0  0  0  0  0  0  0  0  0  0
   34.2760   29.0465   42.6449 H   0  0  0  0  0  0  0  0  0  0  0  0
   33.2527   28.1727   43.8290 H   0  0  0  0  0  0  0  0  0  0  0  0
   28.0290   31.3465   41.5863 H   0  0  0  0  0  0  0  0  0  0  0  0
   27.7601   30.0043   40.4131 H   0  0  0  0  0  0  0  0  0  0  0  0
   28.6671   31.5024   39.9079 H   0  0  0  0  0  0  0  0  0  0  0  0
   29.3149   29.5786   38.5777 H   0  0  0  0  0  0  0  0  0  0  0  0
   30.6685   30.0026   43.4364 H   0  0  0  0  0  0  0  0  0  0  0  0
   32.3374   30.4039   43.9466 H   0  0  0  0  0  0  0  0  0  0  0  0
   31.6879   31.1602   42.4591 H   0  0  0  0  0  0  0  0  0  0  0  0
  1  2  1  0
  2  3  2  0
  2  4  1  0
  4  5  2  0
  5  6  1  0
  6  7  2  0
  7  8  1  0
  8  9  2  0
  9 10  1  0
 10 11  2  0
 11 12  1  0
 12 13  2  0
 13 14  1  0
  8 15  1  0
 15 16  2  0
 16 17  1  0
 17 18  1  0
 18 19  1  0
 19 20  1  0
 20 21  1  0
 21 22  1  0
 22 23  1  0
 23 24  1  0
 24 25  1  0
 23 26  2  0
 21 27  1  0
 13  4  1  0
 26 15  1  0
 12  7  1  0
 22 17  2  0
  1 28  1  0
  1 29  1  0
  9 30  1  0
 10 31  1  0
 11 32  1  0
 14 33  1  0
 14 34  1  0
 16 35  1  0
 18 36  1  0
 18 37  1  0
 20 38  1  0
 20 39  1  0
 25 40  1  0
 25 41  1  0
 25 42  1  0
 26 43  1  0
 27 44  1  0
 27 45  1  0
 27 46  1  0
M  END
$$$$
