confid_0
     RDKit          3D

 39 42  0  0  0  0  0  0  0  0999 V2000
   24.5500   26.3900   36.2500 N   0  0  0  0  0  0  0  0  0  0  0  0
   25.6000   26.1300   35.4000 C   0  0  0  0  0  0  0  0  0  0  0  0
   25.4300   25.4300   34.4200 O   0  0  0  0  0  0  0  0  0  0  0  0
   26.9800   26.6300   35.7100 C   0  0  0  0  0  0  0  0  0  0  0  0
   27.3200   26.8200   36.9800 N   0  0  0  0  0  0  0  0  0  0  0  0
   28.4700   27.4000   37.3100 N   0  0  0  0  0  0  0  0  0  0  0  0
   29.4000   27.6300   36.3700 C   0  0  0  0  0  0  0  0  0  0  0  0
   30.6600   28.0500   36.8000 C   0  0  0  0  0  0  0  0  0  0  0  0
   31.5700   28.3600   35.7800 C   0  0  0  0  0  0  0  0  0  0  0  0
   31.3700   28.1000   34.4300 C   0  0  0  0  0  0  0  0  0  0  0  0
   30.1200   27.5900   34.0500 C   0  0  0  0  0  0  0  0  0  0  0  0
   29.1500   27.3400   35.0300 C   0  0  0  0  0  0  0  0  0  0  0  0
   27.8800   26.8900   34.6600 C   0  0  0  0  0  0  0  0  0  0  0  0
   27.4800   26.6100   33.3700 N   0  0  0  0  0  0  0  0  0  0  0  0
   30.9615   28.3243   38.1799 N   0  0  0  0  0  0  0  0  0  0  0  0
   30.2406   29.3082   38.9929 C   0  0  0  0  0  0  0  0  0  0  0  0
   31.1425   29.6021   40.2164 C   0  0  0  0  0  0  0  0  0  0  0  0
   32.3304   28.7351   39.9863 C   0  0  0  0  0  0  0  0  0  0  0  0
   33.4612   28.5905   40.7927 C   0  0  0  0  0  0  0  0  0  0  0  0
   33.5770   29.3007   41.9439 F   0  0  0  0  0  0  0  0  0  0  0  0
   34.4688   27.6936   40.3864 C   0  0  0  0  0  0  0  0  0  0  0  0
   34.3179   26.9598   39.1884 C   0  0  0  0  0  0  0  0  0  0  0  0
   35.2774   26.0855   38.7915 F   0  0  0  0  0  0  0  0  0  0  0  0
   33.1683   27.1252   38.3989 C   0  0  0  0  0  0  0  0  0  0  0  0
   32.1929   28.0334   38.8214 C   0  0  0  0  0  0  0  0  0  0  0  0
   35.6484   27.5207   41.1952 C   0  0  0  0  0  0  0  0  0  0  0  0
   36.5959   27.3818   41.8449 N   0  0  0  0  0  0  0  0  0  0  0  0
   23.6001   26.0040   36.0503 H   0  0  0  0  0  0  0  0  0  0  0  0
   24.6739   26.9932   37.0933 H   0  0  0  0  0  0  0  0  0  0  0  0
   32.5247   28.7860   36.0615 H   0  0  0  0  0  0  0  0  0  0  0  0
   32.1324   28.3232   33.6948 H   0  0  0  0  0  0  0  0  0  0  0  0
   29.9370   27.4187   32.9982 H   0  0  0  0  0  0  0  0  0  0  0  0
   26.5962   27.0148   32.9873 H   0  0  0  0  0  0  0  0  0  0  0  0
   28.1243   26.1388   32.6978 H   0  0  0  0  0  0  0  0  0  0  0  0
   29.2664   28.8922   39.3258 H   0  0  0  0  0  0  0  0  0  0  0  0
   30.0720   30.2372   38.4058 H   0  0  0  0  0  0  0  0  0  0  0  0
   31.4450   30.6710   40.2419 H   0  0  0  0  0  0  0  0  0  0  0  0
   30.6356   29.3178   41.1635 H   0  0  0  0  0  0  0  0  0  0  0  0
   33.0424   26.5540   37.4885 H   0  0  0  0  0  0  0  0  0  0  0  0
  1  2  1  0
  2  3  2  0
  2  4  1  0
  4  5  2  0
  5  6  1  0
  6  7  2  0
  7  8  1  0
  8  9  2  0
  9 10  1  0
 10 11  2  0
 11 12  1  0
 12 13  2  0
 13 14  1  0
  8 15  1  0
 15 16  1  0
 16 17  1  0
 17 18  1  0
 18 19  2  0
 19 20  1  0
 19 21  1  0
 21 22  2  0
 22 23  1  0
 22 24  1  0
 24 25  2  0
 21 26  1  0
 26 27  3  0
 13  4  1  0
 25 15  1  0
 12  7  1  0
 25 18  1  0
  1 28  1  0
  1 29  1  0
  9 30  1  0
 10 31  1  0
 11 32  1  0
 14 33  1  0
 14 34  1  0
 16 35  1  0
 16 36  1  0
 17 37  1  0
 17 38  1  0
 24 39  1  0
M  END
$$$$
confid_1
     RDKit          3D

 39 42  0  0  0  0  0  0  0  0999 V2000
   24.5500   26.3900   36.2500 N   0  0  0  0  0  0  0  0  0  0  0  0
   25.6000   26.1300   35.4000 C   0  0  0  0  0  0  0  0  0  0  0  0
   25.4300   25.4300   34.4200 O   0  0  0  0  0  0  0  0  0  0  0  0
   26.9800   26.6300   35.7100 C   0  0  0  0  0  0  0  0  0  0  0  0
   27.3200   26.8200   36.9800 N   0  0  0  0  0  0  0  0  0  0  0  0
   28.4700   27.4000   37.3100 N   0  0  0  0  0  0  0  0  0  0  0  0
   29.4000   27.6300   36.3700 C   0  0  0  0  0  0  0  0  0  0  0  0
   30.6600   28.0500   36.8000 C   0  0  0  0  0  0  0  0  0  0  0  0
   31.5700   28.3600   35.7800 C   0  0  0  0  0  0  0  0  0  0  0  0
   31.3700   28.1000   34.4300 C   0  0  0  0  0  0  0  0  0  0  0  0
   30.1200   27.5900   34.0500 C   0  0  0  0  0  0  0  0  0  0  0  0
   29.1500   27.3400   35.0300 C   0  0  0  0  0  0  0  0  0  0  0  0
   27.8800   26.8900   34.6600 C   0  0  0  0  0  0  0  0  0  0  0  0
   27.4800   26.6100   33.3700 N   0  0  0  0  0  0  0  0  0  0  0  0
   30.9738   28.2615   38.1873 N   0  0  0  0  0  0  0  0  0  0  0  0
   31.0076   27.1865   39.1816 C   0  0  0  0  0  0  0  0  0  0  0  0
   31.7616   27.7571   40.4074 C   0  0  0  0  0  0  0  0  0  0  0  0
   32.0977   29.1466   39.9908 C   0  0  0  0  0  0  0  0  0  0  0  0
   32.7636   30.1292   40.7263 C   0  0  0  0  0  0  0  0  0  0  0  0
   33.2115   29.8610   41.9796 F   0  0  0  0  0  0  0  0  0  0  0  0
   32.9517   31.3972   40.1421 C   0  0  0  0  0  0  0  0  0  0  0  0
   32.4615   31.6539   38.8420 C   0  0  0  0  0  0  0  0  0  0  0  0
   32.6245   32.8760   38.2742 F   0  0  0  0  0  0  0  0  0  0  0  0
   31.7928   30.6467   38.1276 C   0  0  0  0  0  0  0  0  0  0  0  0
   31.6396   29.3924   38.7264 C   0  0  0  0  0  0  0  0  0  0  0  0
   33.6347   32.4334   40.8737 C   0  0  0  0  0  0  0  0  0  0  0  0
   34.1833   33.2658   41.4615 N   0  0  0  0  0  0  0  0  0  0  0  0
   23.6001   26.0040   36.0503 H   0  0  0  0  0  0  0  0  0  0  0  0
   24.6739   26.9932   37.0934 H   0  0  0  0  0  0  0  0  0  0  0  0
   32.5393   28.7493   36.0642 H   0  0  0  0  0  0  0  0  0  0  0  0
   32.1357   28.3149   33.6957 H   0  0  0  0  0  0  0  0  0  0  0  0
   29.9377   27.4168   32.9984 H   0  0  0  0  0  0  0  0  0  0  0  0
   26.5962   27.0149   32.9873 H   0  0  0  0  0  0  0  0  0  0  0  0
   28.1242   26.1386   32.6979 H   0  0  0  0  0  0  0  0  0  0  0  0
   29.9746   26.8932   39.4646 H   0  0  0  0  0  0  0  0  0  0  0  0
   31.5487   26.3060   38.7714 H   0  0  0  0  0  0  0  0  0  0  0  0
   31.1082   27.7716   41.3060 H   0  0  0  0  0  0  0  0  0  0  0  0
   32.6897   27.1804   40.6095 H   0  0  0  0  0  0  0  0  0  0  0  0
   31.3984   30.8470   37.1403 H   0  0  0  0  0  0  0  0  0  0  0  0
  1  2  1  0
  2  3  2  0
  2  4  1  0
  4  5  2  0
  5  6  1  0
  6  7  2  0
  7  8  1  0
  8  9  2  0
  9 10  1  0
 10 11  2  0
 11 12  1  0
 12 13  2  0
 13 14  1  0
  8 15  1  0
 15 16  1  0
 16 17  1  0
 17 18  1  0
 18 19  2  0
 19 20  1  0
 19 21  1  0
 21 22  2  0
 22 23  1  0
 22 24  1  0
 24 25  2  0
 21 26  1  0
 26 27  3  0
 13  4  1  0
 25 15  1  0
 12  7  1  0
 25 18  1  0
  1 28  1  0
  1 29  1  0
  9 30  1  0
 10 31  1  0
 11 32  1  0
 14 33  1  0
 14 34  1  0
 16 35  1  0
 16 36  1  0
 17 37  1  0
 17 38  1  0
 24 39  1  0
M  END
$$$$
confid_2
     RDKit          3D

 39 42  0  0  0  0  0  0  0  0999 V2000
   24.5500   26.3900   36.2500 N   0  0  0  0  0  0  0  0  0  0  0  0
   25.6000   26.1300   35.4000 C   0  0  0  0  0  0  0  0  0  0  0  0
   25.4300   25.4300   34.4200 O   0  0  0  0  0  0  0  0  0  0  0  0
   26.9800   26.6300   35.7100 C   0  0  0  0  0  0  0  0  0  0  0  0
   27.3200   26.8200   36.9800 N   0  0  0  0  0  0  0  0  0  0  0  0
   28.4700   27.4000   37.3100 N   0  0  0  0  0  0  0  0  0  0  0  0
   29.4000   27.6300   36.3700 C   0  0  0  0  0  0  0  0  0  0  0  0
   30.6600   28.0500   36.8000 C   0  0  0  0  0  0  0  0  0  0  0  0
   31.5700   28.3600   35.7800 C   0  0  0  0  0  0  0  0  0  0  0  0
   31.3700   28.1000   34.4300 C   0  0  0  0  0  0  0  0  0  0  0  0
   30.1200   27.5900   34.0500 C   0  0  0  0  0  0  0  0  0  0  0  0
   29.1500   27.3400   35.0300 C   0  0  0  0  0  0  0  0  0  0  0  0
   27.8800   26.8900   34.6600 C   0  0  0  0  0  0  0  0  0  0  0  0
   27.4800   26.6100   33.3700 N   0  0  0  0  0  0  0  0  0  0  0  0
   30.9719   28.3069   38.1772 N   0  0  0  0  0  0  0  0  0  0  0  0
   32.0767   27.6830   38.9035 C   0  0  0  0  0  0  0  0  0  0  0  0
   32.0115   28.2515   40.3425 C   0  0  0  0  0  0  0  0  0  0  0  0
   30.8913   29.2336   40.2774 C   0  0  0  0  0  0  0  0  0  0  0  0
   30.4356   30.0892   41.2824 C   0  0  0  0  0  0  0  0  0  0  0  0
   31.0092   30.0675   42.5127 F   0  0  0  0  0  0  0  0  0  0  0  0
   29.3803   30.9746   40.9869 C   0  0  0  0  0  0  0  0  0  0  0  0
   28.8152   30.9908   39.6918 C   0  0  0  0  0  0  0  0  0  0  0  0
   27.8083   31.8500   39.3912 F   0  0  0  0  0  0  0  0  0  0  0  0
   29.2969   30.1212   38.6998 C   0  0  0  0  0  0  0  0  0  0  0  0
   30.3286   29.2377   39.0313 C   0  0  0  0  0  0  0  0  0  0  0  0
   28.8861   31.8703   42.0012 C   0  0  0  0  0  0  0  0  0  0  0  0
   28.4891   32.5899   42.8160 N   0  0  0  0  0  0  0  0  0  0  0  0
   23.6001   26.0039   36.0504 H   0  0  0  0  0  0  0  0  0  0  0  0
   24.6739   26.9933   37.0933 H   0  0  0  0  0  0  0  0  0  0  0  0
   32.5284   28.7744   36.0659 H   0  0  0  0  0  0  0  0  0  0  0  0
   32.1353   28.3155   33.6955 H   0  0  0  0  0  0  0  0  0  0  0  0
   29.9364   27.3925   33.0016 H   0  0  0  0  0  0  0  0  0  0  0  0
   27.5825   27.3394   32.6301 H   0  0  0  0  0  0  0  0  0  0  0  0
   27.4182   25.6173   33.0515 H   0  0  0  0  0  0  0  0  0  0  0  0
   31.9503   26.5789   38.9108 H   0  0  0  0  0  0  0  0  0  0  0  0
   33.0441   27.9488   38.4254 H   0  0  0  0  0  0  0  0  0  0  0  0
   32.9603   28.7625   40.6132 H   0  0  0  0  0  0  0  0  0  0  0  0
   31.7765   27.4512   41.0766 H   0  0  0  0  0  0  0  0  0  0  0  0
   28.8789   30.1457   37.7024 H   0  0  0  0  0  0  0  0  0  0  0  0
  1  2  1  0
  2  3  2  0
  2  4  1  0
  4  5  2  0
  5  6  1  0
  6  7  2  0
  7  8  1  0
  8  9  2  0
  9 10  1  0
 10 11  2  0
 11 12  1  0
 12 13  2  0
 13 14  1  0
  8 15  1  0
 15 16  1  0
 16 17  1  0
 17 18  1  0
 18 19  2  0
 19 20  1  0
 19 21  1  0
 21 22  2  0
 22 23  1  0
 22 24  1  0
 24 25  2  0
 21 26  1  0
 26 27  3  0
 13  4  1  0
 25 15  1  0
 12  7  1  0
 25 18  1  0
  1 28  1  0
  1 29  1  0
  9 30  1  0
 10 31  1  0
 11 32  1  0
 14 33  1  0
 14 34  1  0
 16 35  1  0
 16 36  1  0
 17 37  1  0
 17 38  1  0
 24 39  1  0
M  END
$$$$
confid_3
     RDKit          3D

 39 42  0  0  0  0  0  0  0  0999 V2000
   24.5500   26.3900   36.2500 N   0  0  0  0  0  0  0  0  0  0  0  0
   25.6000   26.1300   35.4000 C   0  0  0  0  0  0  0  0  0  0  0  0
   25.4300   25.4300   34.4200 O   0  0  0  0  0  0  0  0  0  0  0  0
   26.9800   26.6300   35.7100 C   0  0  0  0  0  0  0  0  0  0  0  0
   27.3200   26.8200   36.9800 N   0  0  0  0  0  0  0  0  0  0  0  0
   28.4700   27.4000   37.3100 N   0  0  0  0  0  0  0  0  0  0  0  0
   29.4000   27.6300   36.3700 C   0  0  0  0  0  0  0  0  0  0  0  0
   30.6600   28.0500   36.8000 C   0  0  0  0  0  0  0  0  0  0  0  0
   31.5700   28.3600   35.7800 C   0  0  0  0  0  0  0  0  0  0  0  0
   31.3700   28.1000   34.4300 C   0  0  0  0  0  0  0  0  0  0  0  0
   30.1200   27.5900   34.0500 C   0  0  0  0  0  0  0  0  0  0  0  0
   29.1500   27.3400   35.0300 C   0  0  0  0  0  0  0  0  0  0  0  0
   27.8800   26.8900   34.6600 C   0  0  0  0  0  0  0  0  0  0  0  0
   27.4800   26.6100   33.3700 N   0  0  0  0  0  0  0  0  0  0  0  0
   30.9718   28.2994   38.1798 N   0  0  0  0  0  0  0  0  0  0  0  0
   31.4055   29.5906   38.7130 C   0  0  0  0  0  0  0  0  0  0  0  0
   31.5030   29.4042   40.2474 C   0  0  0  0  0  0  0  0  0  0  0  0
   31.1661   27.9652   40.4447 C   0  0  0  0  0  0  0  0  0  0  0  0
   31.1551   27.2377   41.6365 C   0  0  0  0  0  0  0  0  0  0  0  0
   31.4499   27.8467   42.8135 F   0  0  0  0  0  0  0  0  0  0  0  0
   30.8408   25.8652   41.5857 C   0  0  0  0  0  0  0  0  0  0  0  0
   30.5567   25.2523   40.3445 C   0  0  0  0  0  0  0  0  0  0  0  0
   30.2666   23.9277   40.2816 F   0  0  0  0  0  0  0  0  0  0  0  0
   30.5792   26.0088   39.1616 C   0  0  0  0  0  0  0  0  0  0  0  0
   30.8713   27.3732   39.2482 C   0  0  0  0  0  0  0  0  0  0  0  0
   30.8201   25.0857   42.7971 C   0  0  0  0  0  0  0  0  0  0  0  0
   30.8034   24.4595   43.7702 N   0  0  0  0  0  0  0  0  0  0  0  0
   24.6740   26.9930   37.0935 H   0  0  0  0  0  0  0  0  0  0  0  0
   23.6001   26.0041   36.0503 H   0  0  0  0  0  0  0  0  0  0  0  0
   32.5332   28.7635   36.0650 H   0  0  0  0  0  0  0  0  0  0  0  0
   32.1344   28.3180   33.6953 H   0  0  0  0  0  0  0  0  0  0  0  0
   29.9374   27.4175   32.9983 H   0  0  0  0  0  0  0  0  0  0  0  0
   28.1242   26.1386   32.6979 H   0  0  0  0  0  0  0  0  0  0  0  0
   26.5962   27.0149   32.9873 H   0  0  0  0  0  0  0  0  0  0  0  0
   30.6601   30.3752   38.4603 H   0  0  0  0  0  0  0  0  0  0  0  0
   32.3973   29.8626   38.2923 H   0  0  0  0  0  0  0  0  0  0  0  0
   32.5318   29.6146   40.6105 H   0  0  0  0  0  0  0  0  0  0  0  0
   30.7648   30.0461   40.7743 H   0  0  0  0  0  0  0  0  0  0  0  0
   30.3801   25.5387   38.2076 H   0  0  0  0  0  0  0  0  0  0  0  0
  1  2  1  0
  2  3  2  0
  2  4  1  0
  4  5  2  0
  5  6  1  0
  6  7  2  0
  7  8  1  0
  8  9  2  0
  9 10  1  0
 10 11  2  0
 11 12  1  0
 12 13  2  0
 13 14  1  0
  8 15  1  0
 15 16  1  0
 16 17  1  0
 17 18  1  0
 18 19  2  0
 19 20  1  0
 19 21  1  0
 21 22  2  0
 22 23  1  0
 22 24  1  0
 24 25  2  0
 21 26  1  0
 26 27  3  0
 13  4  1  0
 25 15  1  0
 12  7  1  0
 25 18  1  0
  1 28  1  0
  1 29  1  0
  9 30  1  0
 10 31  1  0
 11 32  1  0
 14 33  1  0
 14 34  1  0
 16 35  1  0
 16 36  1  0
 17 37  1  0
 17 38  1  0
 24 39  1  0
M  END
$$$$
