confid_0
     RDKit          3D

 44 47  0  0  0  0  0  0  0  0999 V2000
   24.5500   26.3900   36.2500 N   0  0  0  0  0  0  0  0  0  0  0  0
   25.6000   26.1300   35.4000 C   0  0  0  0  0  0  0  0  0  0  0  0
   25.4300   25.4300   34.4200 O   0  0  0  0  0  0  0  0  0  0  0  0
   26.9800   26.6300   35.7100 C   0  0  0  0  0  0  0  0  0  0  0  0
   27.3200   26.8200   36.9800 N   0  0  0  0  0  0  0  0  0  0  0  0
   28.4700   27.4000   37.3100 N   0  0  0  0  0  0  0  0  0  0  0  0
   29.4000   27.6300   36.3700 C   0  0  0  0  0  0  0  0  0  0  0  0
   30.6600   28.0500   36.8000 C   0  0  0  0  0  0  0  0  0  0  0  0
   31.5700   28.3600   35.7800 C   0  0  0  0  0  0  0  0  0  0  0  0
   31.3700   28.1000   34.4300 C   0  0  0  0  0  0  0  0  0  0  0  0
   30.1200   27.5900   34.0500 C   0  0  0  0  0  0  0  0  0  0  0  0
   29.1500   27.3400   35.0300 C   0  0  0  0  0  0  0  0  0  0  0  0
   27.8800   26.8900   34.6600 C   0  0  0  0  0  0  0  0  0  0  0  0
   27.4800   26.6100   33.3700 N   0  0  0  0  0  0  0  0  0  0  0  0
   31.0071   28.3121   38.2194 C   0  0  0  0  0  0  0  0  0  0  0  0
   32.1771   27.7662   38.7646 C   0  0  0  0  0  0  0  0  0  0  0  0
   32.5395   28.0056   40.1046 C   0  0  0  0  0  0  0  0  0  0  0  0
   33.8190   27.3820   40.6132 C   0  0  0  0  0  0  0  0  0  0  0  0
   33.5786   26.6298   41.8489 N   0  0  0  0  0  0  0  0  0  0  0  0
   33.6188   25.1649   41.8564 C   0  0  0  0  0  0  0  0  0  0  0  0
   33.2945   27.3420   43.0626 C   0  0  0  0  0  0  0  0  0  0  0  0
   33.1850   26.7228   44.1560 O   0  0  0  0  0  0  0  0  0  0  0  0
   33.0951   28.8238   43.0300 C   0  0  0  0  0  0  0  0  0  0  0  0
   31.9438   29.1520   42.2586 O   0  0  0  0  0  0  0  0  0  0  0  0
   31.7053   28.8380   40.9063 C   0  0  0  0  0  0  0  0  0  0  0  0
   30.5460   29.3843   40.3425 C   0  0  0  0  0  0  0  0  0  0  0  0
   30.1997   29.1316   39.0165 C   0  0  0  0  0  0  0  0  0  0  0  0
   23.6001   26.0039   36.0504 H   0  0  0  0  0  0  0  0  0  0  0  0
   24.6739   26.9932   37.0934 H   0  0  0  0  0  0  0  0  0  0  0  0
   32.5311   28.7746   36.0597 H   0  0  0  0  0  0  0  0  0  0  0  0
   32.1352   28.3154   33.6954 H   0  0  0  0  0  0  0  0  0  0  0  0
   29.9365   27.3924   33.0016 H   0  0  0  0  0  0  0  0  0  0  0  0
   27.4182   25.6173   33.0515 H   0  0  0  0  0  0  0  0  0  0  0  0
   27.5826   27.3394   32.6301 H   0  0  0  0  0  0  0  0  0  0  0  0
   32.8027   27.1401   38.1388 H   0  0  0  0  0  0  0  0  0  0  0  0
   34.2651   26.7149   39.8438 H   0  0  0  0  0  0  0  0  0  0  0  0
   34.5815   28.1703   40.7815 H   0  0  0  0  0  0  0  0  0  0  0  0
   33.7971   24.7552   40.8400 H   0  0  0  0  0  0  0  0  0  0  0  0
   32.6490   24.7663   42.2222 H   0  0  0  0  0  0  0  0  0  0  0  0
   34.4337   24.8162   42.5252 H   0  0  0  0  0  0  0  0  0  0  0  0
   32.9445   29.2037   44.0628 H   0  0  0  0  0  0  0  0  0  0  0  0
   33.9895   29.3378   42.6221 H   0  0  0  0  0  0  0  0  0  0  0  0
   29.9060   30.0196   40.9422 H   0  0  0  0  0  0  0  0  0  0  0  0
   29.3077   29.5907   38.6086 H   0  0  0  0  0  0  0  0  0  0  0  0
  1  2  1  0
  2  3  2  0
  2  4  1  0
  4  5  2  0
  5  6  1  0
  6  7  2  0
  7  8  1  0
  8  9  2  0
  9 10  1  0
 10 11  2  0
 11 12  1  0
 12 13  2  0
 13 14  1  0
  8 15  1  0
 15 16  2  0
 16 17  1  0
 17 18  1  0
 18 19  1  0
 19 20  1  0
 19 21  1  0
 21 22  2  0
 21 23  1  0
 23 24  1  0
 24 25  1  0
 25 26  1  0
 26 27  2  0
 13  4  1  0
 27 15  1  0
 12  7  1  0
 25 17  2  0
  1 28  1  0
  1 29  1  0
  9 30  1  0
 10 31  1  0
 11 32  1  0
 14 33  1  0
 14 34  1  0
 16 35  1  0
 18 36  1  0
 18 37  1  0
 20 38  1  0
 20 39  1  0
 20 40  1  0
 23 41  1  0
 23 42  1  0
 26 43  1  0
 27 44  1  0
M  END
$$$$
confid_1
     RDKit          3D

 44 47  0  0  0  0  0  0  0  0999 V2000
   24.5500   26.3900   36.2500 N   0  0  0  0  0  0  0  0  0  0  0  0
   25.6000   26.1300   35.4000 C   0  0  0  0  0  0  0  0  0  0  0  0
   25.4300   25.4300   34.4200 O   0  0  0  0  0  0  0  0  0  0  0  0
   26.9800   26.6300   35.7100 C   0  0  0  0  0  0  0  0  0  0  0  0
   27.3200   26.8200   36.9800 N   0  0  0  0  0  0  0  0  0  0  0  0
   28.4700   27.4000   37.3100 N   0  0  0  0  0  0  0  0  0  0  0  0
   29.4000   27.6300   36.3700 C   0  0  0  0  0  0  0  0  0  0  0  0
   30.6600   28.0500   36.8000 C   0  0  0  0  0  0  0  0  0  0  0  0
   31.5700   28.3600   35.7800 C   0  0  0  0  0  0  0  0  0  0  0  0
   31.3700   28.1000   34.4300 C   0  0  0  0  0  0  0  0  0  0  0  0
   30.1200   27.5900   34.0500 C   0  0  0  0  0  0  0  0  0  0  0  0
   29.1500   27.3400   35.0300 C   0  0  0  0  0  0  0  0  0  0  0  0
   27.8800   26.8900   34.6600 C   0  0  0  0  0  0  0  0  0  0  0  0
   27.4800   26.6100   33.3700 N   0  0  0  0  0  0  0  0  0  0  0  0
   31.0054   28.2812   38.2259 C   0  0  0  0  0  0  0  0  0  0  0  0
   30.8105   27.2704   39.1782 C   0  0  0  0  0  0  0  0  0  0  0  0
   31.1429   27.4689   40.5326 C   0  0  0  0  0  0  0  0  0  0  0  0
   30.8835   26.3346   41.4975 C   0  0  0  0  0  0  0  0  0  0  0  0
   32.0875   26.0234   42.2747 N   0  0  0  0  0  0  0  0  0  0  0  0
   32.8404   24.7898   42.0316 C   0  0  0  0  0  0  0  0  0  0  0  0
   32.5329   26.9445   43.2818 C   0  0  0  0  0  0  0  0  0  0  0  0
   33.5028   26.6503   44.0326 O   0  0  0  0  0  0  0  0  0  0  0  0
   31.8661   28.2755   43.4240 C   0  0  0  0  0  0  0  0  0  0  0  0
   32.0622   29.0557   42.2488 O   0  0  0  0  0  0  0  0  0  0  0  0
   31.6823   28.7259   40.9332 C   0  0  0  0  0  0  0  0  0  0  0  0
   31.8817   29.7197   39.9673 C   0  0  0  0  0  0  0  0  0  0  0  0
   31.5519   29.5039   38.6305 C   0  0  0  0  0  0  0  0  0  0  0  0
   23.6001   26.0040   36.0503 H   0  0  0  0  0  0  0  0  0  0  0  0
   24.6740   26.9931   37.0934 H   0  0  0  0  0  0  0  0  0  0  0  0
   32.5387   28.7561   36.0596 H   0  0  0  0  0  0  0  0  0  0  0  0
   32.1351   28.3163   33.6954 H   0  0  0  0  0  0  0  0  0  0  0  0
   29.9376   27.4171   32.9984 H   0  0  0  0  0  0  0  0  0  0  0  0
   26.5962   27.0149   32.9873 H   0  0  0  0  0  0  0  0  0  0  0  0
   28.1242   26.1386   32.6979 H   0  0  0  0  0  0  0  0  0  0  0  0
   30.4093   26.3167   38.8558 H   0  0  0  0  0  0  0  0  0  0  0  0
   30.5367   25.4278   40.9558 H   0  0  0  0  0  0  0  0  0  0  0  0
   30.0440   26.5994   42.1731 H   0  0  0  0  0  0  0  0  0  0  0  0
   33.8911   25.0384   41.7720 H   0  0  0  0  0  0  0  0  0  0  0  0
   32.8283   24.1578   42.9445 H   0  0  0  0  0  0  0  0  0  0  0  0
   32.4082   24.2055   41.1922 H   0  0  0  0  0  0  0  0  0  0  0  0
   30.7825   28.1589   43.6307 H   0  0  0  0  0  0  0  0  0  0  0  0
   32.3044   28.8232   44.2852 H   0  0  0  0  0  0  0  0  0  0  0  0
   32.2981   30.6757   40.2595 H   0  0  0  0  0  0  0  0  0  0  0  0
   31.7114   30.2992   37.9127 H   0  0  0  0  0  0  0  0  0  0  0  0
  1  2  1  0
  2  3  2  0
  2  4  1  0
  4  5  2  0
  5  6  1  0
  6  7  2  0
  7  8  1  0
  8  9  2  0
  9 10  1  0
 10 11  2  0
 11 12  1  0
 12 13  2  0
 13 14  1  0
  8 15  1  0
 15 16  2  0
 16 17  1  0
 17 18  1  0
 18 19  1  0
 19 20  1  0
 19 21  1  0
 21 22  2  0
 21 23  1  0
 23 24  1  0
 24 25  1  0
 25 26  1  0
 26 27  2  0
 13  4  1  0
 27 15  1  0
 12  7  1  0
 25 17  2  0
  1 28  1  0
  1 29  1  0
  9 30  1  0
 10 31  1  0
 11 32  1  0
 14 33  1  0
 14 34  1  0
 16 35  1  0
 18 36  1  0
 18 37  1  0
 20 38  1  0
 20 39  1  0
 20 40  1  0
 23 41  1  0
 23 42  1  0
 26 43  1  0
 27 44  1  0
M  END
$$$$
confid_2
     RDKit          3D

 44 47  0  0  0  0  0  0  0  0999 V2000
   24.5500   26.3900   36.2500 N   0  0  0  0  0  0  0  0  0  0  0  0
   25.6000   26.1300   35.4000 C   0  0  0  0  0  0  0  0  0  0  0  0
   25.4300   25.4300   34.4200 O   0  0  0  0  0  0  0  0  0  0  0  0
   26.9800   26.6300   35.7100 C   0  0  0  0  0  0  0  0  0  0  0  0
   27.3200   26.8200   36.9800 N   0  0  0  0  0  0  0  0  0  0  0  0
   28.4700   27.4000   37.3100 N   0  0  0  0  0  0  0  0  0  0  0  0
   29.4000   27.6300   36.3700 C   0  0  0  0  0  0  0  0  0  0  0  0
   30.6600   28.0500   36.8000 C   0  0  0  0  0  0  0  0  0  0  0  0
   31.5700   28.3600   35.7800 C   0  0  0  0  0  0  0  0  0  0  0  0
   31.3700   28.1000   34.4300 C   0  0  0  0  0  0  0  0  0  0  0  0
   30.1200   27.5900   34.0500 C   0  0  0  0  0  0  0  0  0  0  0  0
   29.1500   27.3400   35.0300 C   0  0  0  0  0  0  0  0  0  0  0  0
   27.8800   26.8900   34.6600 C   0  0  0  0  0  0  0  0  0  0  0  0
   27.4800   26.6100   33.3700 N   0  0  0  0  0  0  0  0  0  0  0  0
   31.0053   28.2824   38.2257 C   0  0  0  0  0  0  0  0  0  0  0  0
   31.5531   29.5077   38.6321 C   0  0  0  0  0  0  0  0  0  0  0  0
   31.9020   29.7418   39.9766 C   0  0  0  0  0  0  0  0  0  0  0  0
   32.4678   31.0970   40.3344 C   0  0  0  0  0  0  0  0  0  0  0  0
   33.7315   30.9596   41.0655 N   0  0  0  0  0  0  0  0  0  0  0  0
   35.0068   31.3082   40.4332 C   0  0  0  0  0  0  0  0  0  0  0  0
   33.7144   30.4711   42.4154 C   0  0  0  0  0  0  0  0  0  0  0  0
   34.7746   30.4426   43.0979 O   0  0  0  0  0  0  0  0  0  0  0  0
   32.4398   29.9623   43.0094 C   0  0  0  0  0  0  0  0  0  0  0  0
   31.9920   28.8075   42.3064 O   0  0  0  0  0  0  0  0  0  0  0  0
   31.6838   28.7100   40.9354 C   0  0  0  0  0  0  0  0  0  0  0  0
   31.1452   27.4894   40.5108 C   0  0  0  0  0  0  0  0  0  0  0  0
   30.8113   27.2732   39.1752 C   0  0  0  0  0  0  0  0  0  0  0  0
   23.6001   26.0040   36.0503 H   0  0  0  0  0  0  0  0  0  0  0  0
   24.6739   26.9932   37.0934 H   0  0  0  0  0  0  0  0  0  0  0  0
   32.5388   28.7560   36.0596 H   0  0  0  0  0  0  0  0  0  0  0  0
   32.1351   28.3163   33.6954 H   0  0  0  0  0  0  0  0  0  0  0  0
   29.9376   27.4171   32.9984 H   0  0  0  0  0  0  0  0  0  0  0  0
   26.5962   27.0149   32.9873 H   0  0  0  0  0  0  0  0  0  0  0  0
   28.1242   26.1386   32.6978 H   0  0  0  0  0  0  0  0  0  0  0  0
   31.6965   30.2883   37.8940 H   0  0  0  0  0  0  0  0  0  0  0  0
   32.6228   31.7127   39.4217 H   0  0  0  0  0  0  0  0  0  0  0  0
   31.7306   31.6657   40.9383 H   0  0  0  0  0  0  0  0  0  0  0  0
   35.4831   32.1443   40.9872 H   0  0  0  0  0  0  0  0  0  0  0  0
   35.6833   30.4276   40.4462 H   0  0  0  0  0  0  0  0  0  0  0  0
   34.8680   31.6190   39.3763 H   0  0  0  0  0  0  0  0  0  0  0  0
   31.6545   30.7457   42.9999 H   0  0  0  0  0  0  0  0  0  0  0  0
   32.6075   29.6827   44.0712 H   0  0  0  0  0  0  0  0  0  0  0  0
   30.9873   26.6941   41.2287 H   0  0  0  0  0  0  0  0  0  0  0  0
   30.4126   26.3103   38.8803 H   0  0  0  0  0  0  0  0  0  0  0  0
  1  2  1  0
  2  3  2  0
  2  4  1  0
  4  5  2  0
  5  6  1  0
  6  7  2  0
  7  8  1  0
  8  9  2  0
  9 10  1  0
 10 11  2  0
 11 12  1  0
 12 13  2  0
 13 14  1  0
  8 15  1  0
 15 16  2  0
 16 17  1  0
 17 18  1  0
 18 19  1  0
 19 20  1  0
 19 21  1  0
 21 22  2  0
 21 23  1  0
 23 24  1  0
 24 25  1  0
 25 26  1  0
 26 27  2  0
 13  4  1  0
 27 15  1  0
 12  7  1  0
 25 17  2  0
  1 28  1  0
  1 29  1  0
  9 30  1  0
 10 31  1  0
 11 32  1  0
 14 33  1  0
 14 34  1  0
 16 35  1  0
 18 36  1  0
 18 37  1  0
 20 38  1  0
 20 39  1  0
 20 40  1  0
 23 41  1  0
 23 42  1  0
 26 43  1  0
 27 44  1  0
M  END
$$$$
confid_3
     RDKit          3D

 44 47  0  0  0  0  0  0  0  0999 V2000
   24.5500   26.3900   36.2500 N   0  0  0  0  0  0  0  0  0  0  0  0
   25.6000   26.1300   35.4000 C   0  0  0  0  0  0  0  0  0  0  0  0
   25.4300   25.4300   34.4200 O   0  0  0  0  0  0  0  0  0  0  0  0
   26.9800   26.6300   35.7100 C   0  0  0  0  0  0  0  0  0  0  0  0
   27.3200   26.8200   36.9800 N   0  0  0  0  0  0  0  0  0  0  0  0
   28.4700   27.4000   37.3100 N   0  0  0  0  0  0  0  0  0  0  0  0
   29.4000   27.6300   36.3700 C   0  0  0  0  0  0  0  0  0  0  0  0
   30.6600   28.0500   36.8000 C   0  0  0  0  0  0  0  0  0  0  0  0
   31.5700   28.3600   35.7800 C   0  0  0  0  0  0  0  0  0  0  0  0
   31.3700   28.1000   34.4300 C   0  0  0  0  0  0  0  0  0  0  0  0
   30.1200   27.5900   34.0500 C   0  0  0  0  0  0  0  0  0  0  0  0
   29.1500   27.3400   35.0300 C   0  0  0  0  0  0  0  0  0  0  0  0
   27.8800   26.8900   34.6600 C   0  0  0  0  0  0  0  0  0  0  0  0
   27.4800   26.6100   33.3700 N   0  0  0  0  0  0  0  0  0  0  0  0
   31.0048   28.2828   38.2257 C   0  0  0  0  0  0  0  0  0  0  0  0
   31.5500   29.5091   38.6325 C   0  0  0  0  0  0  0  0  0  0  0  0
   31.8895   29.7468   39.9787 C   0  0  0  0  0  0  0  0  0  0  0  0
   32.4774   31.0937   40.3325 C   0  0  0  0  0  0  0  0  0  0  0  0
   31.7414   31.7105   41.4409 N   0  0  0  0  0  0  0  0  0  0  0  0
   30.8725   32.8684   41.2134 C   0  0  0  0  0  0  0  0  0  0  0  0
   31.8726   31.1654   42.7625 C   0  0  0  0  0  0  0  0  0  0  0  0
   31.3318   31.7395   43.7468 O   0  0  0  0  0  0  0  0  0  0  0  0
   32.6276   29.8919   42.9738 C   0  0  0  0  0  0  0  0  0  0  0  0
   31.9764   28.8138   42.3092 O   0  0  0  0  0  0  0  0  0  0  0  0
   31.6887   28.7085   40.9343 C   0  0  0  0  0  0  0  0  0  0  0  0
   31.1489   27.4883   40.5100 C   0  0  0  0  0  0  0  0  0  0  0  0
   30.8129   27.2729   39.1748 C   0  0  0  0  0  0  0  0  0  0  0  0
   24.6739   26.9932   37.0934 H   0  0  0  0  0  0  0  0  0  0  0  0
   23.6001   26.0040   36.0503 H   0  0  0  0  0  0  0  0  0  0  0  0
   32.5387   28.7561   36.0596 H   0  0  0  0  0  0  0  0  0  0  0  0
   32.1350   28.3163   33.6954 H   0  0  0  0  0  0  0  0  0  0  0  0
   29.9376   27.4171   32.9984 H   0  0  0  0  0  0  0  0  0  0  0  0
   26.5962   27.0149   32.9873 H   0  0  0  0  0  0  0  0  0  0  0  0
   28.1242   26.1386   32.6978 H   0  0  0  0  0  0  0  0  0  0  0  0
   31.6966   30.2884   37.8936 H   0  0  0  0  0  0  0  0  0  0  0  0
   32.4715   31.7703   39.4503 H   0  0  0  0  0  0  0  0  0  0  0  0
   33.5495   30.9797   40.5951 H   0  0  0  0  0  0  0  0  0  0  0  0
   29.8402   32.6324   41.5481 H   0  0  0  0  0  0  0  0  0  0  0  0
   31.2530   33.7402   41.7861 H   0  0  0  0  0  0  0  0  0  0  0  0
   30.8305   33.1435   40.1385 H   0  0  0  0  0  0  0  0  0  0  0  0
   32.6716   29.6589   44.0589 H   0  0  0  0  0  0  0  0  0  0  0  0
   33.6744   29.9852   42.6190 H   0  0  0  0  0  0  0  0  0  0  0  0
   30.9913   26.6930   41.2278 H   0  0  0  0  0  0  0  0  0  0  0  0
   30.4144   26.3099   38.8799 H   0  0  0  0  0  0  0  0  0  0  0  0
  1  2  1  0
  2  3  2  0
  2  4  1  0
  4  5  2  0
  5  6  1  0
  6  7  2  0
  7  8  1  0
  8  9  2  0
  9 10  1  0
 10 11  2  0
 11 12  1  0
 12 13  2  0
 13 14  1  0
  8 15  1  0
 15 16  2  0
 16 17  1  0
 17 18  1  0
 18 19  1  0
 19 20  1  0
 19 21  1  0
 21 22  2  0
 21 23  1  0
 23 24  1  0
 24 25  1  0
 25 26  1  0
 26 27  2  0
 13  4  1  0
 27 15  1  0
 12  7  1  0
 25 17  2  0
  1 28  1  0
  1 29  1  0
  9 30  1  0
 10 31  1  0
 11 32  1  0
 14 33  1  0
 14 34  1  0
 16 35  1  0
 18 36  1  0
 18 37  1  0
 20 38  1  0
 20 39  1  0
 20 40  1  0
 23 41  1  0
 23 42  1  0
 26 43  1  0
 27 44  1  0
M  END
$$$$
confid_4
     RDKit          3D

 44 47  0  0  0  0  0  0  0  0999 V2000
   24.5500   26.3900   36.2500 N   0  0  0  0  0  0  0  0  0  0  0  0
   25.6000   26.1300   35.4000 C   0  0  0  0  0  0  0  0  0  0  0  0
   25.4300   25.4300   34.4200 O   0  0  0  0  0  0  0  0  0  0  0  0
   26.9800   26.6300   35.7100 C   0  0  0  0  0  0  0  0  0  0  0  0
   27.3200   26.8200   36.9800 N   0  0  0  0  0  0  0  0  0  0  0  0
   28.4700   27.4000   37.3100 N   0  0  0  0  0  0  0  0  0  0  0  0
   29.4000   27.6300   36.3700 C   0  0  0  0  0  0  0  0  0  0  0  0
   30.6600   28.0500   36.8000 C   0  0  0  0  0  0  0  0  0  0  0  0
   31.5700   28.3600   35.7800 C   0  0  0  0  0  0  0  0  0  0  0  0
   31.3700   28.1000   34.4300 C   0  0  0  0  0  0  0  0  0  0  0  0
   30.1200   27.5900   34.0500 C   0  0  0  0  0  0  0  0  0  0  0  0
   29.1500   27.3400   35.0300 C   0  0  0  0  0  0  0  0  0  0  0  0
   27.8800   26.8900   34.6600 C   0  0  0  0  0  0  0  0  0  0  0  0
   27.4800   26.6100   33.3700 N   0  0  0  0  0  0  0  0  0  0  0  0
   31.0061   28.3141   38.2191 C   0  0  0  0  0  0  0  0  0  0  0  0
   30.1984   29.1375   39.0173 C   0  0  0  0  0  0  0  0  0  0  0  0
   30.5300   29.4046   40.3600 C   0  0  0  0  0  0  0  0  0  0  0  0
   29.5949   30.2848   41.1574 C   0  0  0  0  0  0  0  0  0  0  0  0
   30.3271   31.3845   41.7940 N   0  0  0  0  0  0  0  0  0  0  0  0
   30.1792   32.7616   41.3154 C   0  0  0  0  0  0  0  0  0  0  0  0
   31.2023   31.1022   42.8964 C   0  0  0  0  0  0  0  0  0  0  0  0
   31.7601   32.0420   43.5261 O   0  0  0  0  0  0  0  0  0  0  0  0
   31.4825   29.6852   43.2837 C   0  0  0  0  0  0  0  0  0  0  0  0
   32.1600   29.0085   42.2296 O   0  0  0  0  0  0  0  0  0  0  0  0
   31.7094   28.8212   40.9083 C   0  0  0  0  0  0  0  0  0  0  0  0
   32.5129   28.0159   40.0919 C   0  0  0  0  0  0  0  0  0  0  0  0
   32.1719   27.7668   38.7639 C   0  0  0  0  0  0  0  0  0  0  0  0
   23.6001   26.0040   36.0503 H   0  0  0  0  0  0  0  0  0  0  0  0
   24.6739   26.9932   37.0933 H   0  0  0  0  0  0  0  0  0  0  0  0
   32.5305   28.7759   36.0597 H   0  0  0  0  0  0  0  0  0  0  0  0
   32.1333   28.3208   33.6949 H   0  0  0  0  0  0  0  0  0  0  0  0
   29.9372   27.4182   32.9982 H   0  0  0  0  0  0  0  0  0  0  0  0
   28.1243   26.1388   32.6978 H   0  0  0  0  0  0  0  0  0  0  0  0
   26.5962   27.0149   32.9873 H   0  0  0  0  0  0  0  0  0  0  0  0
   29.3134   29.5865   38.5819 H   0  0  0  0  0  0  0  0  0  0  0  0
   29.0663   29.6779   41.9213 H   0  0  0  0  0  0  0  0  0  0  0  0
   28.7879   30.6913   40.5097 H   0  0  0  0  0  0  0  0  0  0  0  0
   31.1724   33.1651   41.0254 H   0  0  0  0  0  0  0  0  0  0  0  0
   29.7481   33.3934   42.1203 H   0  0  0  0  0  0  0  0  0  0  0  0
   29.5135   32.8173   40.4285 H   0  0  0  0  0  0  0  0  0  0  0  0
   30.5463   29.1500   43.5439 H   0  0  0  0  0  0  0  0  0  0  0  0
   32.1301   29.6651   44.1859 H   0  0  0  0  0  0  0  0  0  0  0  0
   33.4166   27.5762   40.4953 H   0  0  0  0  0  0  0  0  0  0  0  0
   32.8142   27.1355   38.1620 H   0  0  0  0  0  0  0  0  0  0  0  0
  1  2  1  0
  2  3  2  0
  2  4  1  0
  4  5  2  0
  5  6  1  0
  6  7  2  0
  7  8  1  0
  8  9  2  0
  9 10  1  0
 10 11  2  0
 11 12  1  0
 12 13  2  0
 13 14  1  0
  8 15  1  0
 15 16  2  0
 16 17  1  0
 17 18  1  0
 18 19  1  0
 19 20  1  0
 19 21  1  0
 21 22  2  0
 21 23  1  0
 23 24  1  0
 24 25  1  0
 25 26  1  0
 26 27  2  0
 13  4  1  0
 27 15  1  0
 12  7  1  0
 25 17  2  0
  1 28  1  0
  1 29  1  0
  9 30  1  0
 10 31  1  0
 11 32  1  0
 14 33  1  0
 14 34  1  0
 16 35  1  0
 18 36  1  0
 18 37  1  0
 20 38  1  0
 20 39  1  0
 20 40  1  0
 23 41  1  0
 23 42  1  0
 26 43  1  0
 27 44  1  0
M  END
$$$$
confid_5
     RDKit          3D

 44 47  0  0  0  0  0  0  0  0999 V2000
   24.5500   26.3900   36.2500 N   0  0  0  0  0  0  0  0  0  0  0  0
   25.6000   26.1300   35.4000 C   0  0  0  0  0  0  0  0  0  0  0  0
   25.4300   25.4300   34.4200 O   0  0  0  0  0  0  0  0  0  0  0  0
   26.9800   26.6300   35.7100 C   0  0  0  0  0  0  0  0  0  0  0  0
   27.3200   26.8200   36.9800 N   0  0  0  0  0  0  0  0  0  0  0  0
   28.4700   27.4000   37.3100 N   0  0  0  0  0  0  0  0  0  0  0  0
   29.4000   27.6300   36.3700 C   0  0  0  0  0  0  0  0  0  0  0  0
   30.6600   28.0500   36.8000 C   0  0  0  0  0  0  0  0  0  0  0  0
   31.5700   28.3600   35.7800 C   0  0  0  0  0  0  0  0  0  0  0  0
   31.3700   28.1000   34.4300 C   0  0  0  0  0  0  0  0  0  0  0  0
   30.1200   27.5900   34.0500 C   0  0  0  0  0  0  0  0  0  0  0  0
   29.1500   27.3400   35.0300 C   0  0  0  0  0  0  0  0  0  0  0  0
   27.8800   26.8900   34.6600 C   0  0  0  0  0  0  0  0  0  0  0  0
   27.4800   26.6100   33.3700 N   0  0  0  0  0  0  0  0  0  0  0  0
   31.0049   28.2813   38.2260 C   0  0  0  0  0  0  0  0  0  0  0  0
   30.8064   27.2715   39.1786 C   0  0  0  0  0  0  0  0  0  0  0  0
   31.1268   27.4739   40.5351 C   0  0  0  0  0  0  0  0  0  0  0  0
   30.8871   26.3322   41.4960 C   0  0  0  0  0  0  0  0  0  0  0  0
   30.0839   26.7736   42.6406 N   0  0  0  0  0  0  0  0  0  0  0  0
   28.6894   26.3481   42.7883 C   0  0  0  0  0  0  0  0  0  0  0  0
   30.6729   27.6416   43.6208 C   0  0  0  0  0  0  0  0  0  0  0  0
   30.0357   27.9528   44.6639 O   0  0  0  0  0  0  0  0  0  0  0  0
   32.0382   28.2081   43.3929 C   0  0  0  0  0  0  0  0  0  0  0  0
   32.0366   29.0633   42.2540 O   0  0  0  0  0  0  0  0  0  0  0  0
   31.6817   28.7248   40.9336 C   0  0  0  0  0  0  0  0  0  0  0  0
   31.8824   29.7186   39.9678 C   0  0  0  0  0  0  0  0  0  0  0  0
   31.5530   29.5032   38.6309 C   0  0  0  0  0  0  0  0  0  0  0  0
   23.6001   26.0041   36.0503 H   0  0  0  0  0  0  0  0  0  0  0  0
   24.6740   26.9930   37.0935 H   0  0  0  0  0  0  0  0  0  0  0  0
   32.5387   28.7561   36.0596 H   0  0  0  0  0  0  0  0  0  0  0  0
   32.1351   28.3163   33.6954 H   0  0  0  0  0  0  0  0  0  0  0  0
   29.9376   27.4171   32.9984 H   0  0  0  0  0  0  0  0  0  0  0  0
   26.5962   27.0149   32.9873 H   0  0  0  0  0  0  0  0  0  0  0  0
   28.1242   26.1386   32.6979 H   0  0  0  0  0  0  0  0  0  0  0  0
   30.4091   26.3165   38.8553 H   0  0  0  0  0  0  0  0  0  0  0  0
   30.3824   25.4847   40.9830 H   0  0  0  0  0  0  0  0  0  0  0  0
   31.8576   25.9184   41.8398 H   0  0  0  0  0  0  0  0  0  0  0  0
   28.3582   25.7266   41.9298 H   0  0  0  0  0  0  0  0  0  0  0  0
   28.5760   25.7534   43.7190 H   0  0  0  0  0  0  0  0  0  0  0  0
   28.0300   27.2402   42.8409 H   0  0  0  0  0  0  0  0  0  0  0  0
   32.7887   27.4012   43.2657 H   0  0  0  0  0  0  0  0  0  0  0  0
   32.3483   28.8038   44.2776 H   0  0  0  0  0  0  0  0  0  0  0  0
   32.2982   30.6747   40.2606 H   0  0  0  0  0  0  0  0  0  0  0  0
   31.7138   30.2983   37.9131 H   0  0  0  0  0  0  0  0  0  0  0  0
  1  2  1  0
  2  3  2  0
  2  4  1  0
  4  5  2  0
  5  6  1  0
  6  7  2  0
  7  8  1  0
  8  9  2  0
  9 10  1  0
 10 11  2  0
 11 12  1  0
 12 13  2  0
 13 14  1  0
  8 15  1  0
 15 16  2  0
 16 17  1  0
 17 18  1  0
 18 19  1  0
 19 20  1  0
 19 21  1  0
 21 22  2  0
 21 23  1  0
 23 24  1  0
 24 25  1  0
 25 26  1  0
 26 27  2  0
 13  4  1  0
 27 15  1  0
 12  7  1  0
 25 17  2  0
  1 28  1  0
  1 29  1  0
  9 30  1  0
 10 31  1  0
 11 32  1  0
 14 33  1  0
 14 34  1  0
 16 35  1  0
 18 36  1  0
 18 37  1  0
 20 38  1  0
 20 39  1  0
 20 40  1  0
 23 41  1  0
 23 42  1  0
 26 43  1  0
 27 44  1  0
M  END
$$$$
confid_6
     RDKit          3D

 44 47  0  0  0  0  0  0  0  0999 V2000
   24.5500   26.3900   36.2500 N   0  0  0  0  0  0  0  0  0  0  0  0
   25.6000   26.1300   35.4000 C   0  0  0  0  0  0  0  0  0  0  0  0
   25.4300   25.4300   34.4200 O   0  0  0  0  0  0  0  0  0  0  0  0
   26.9800   26.6300   35.7100 C   0  0  0  0  0  0  0  0  0  0  0  0
   27.3200   26.8200   36.9800 N   0  0  0  0  0  0  0  0  0  0  0  0
   28.4700   27.4000   37.3100 N   0  0  0  0  0  0  0  0  0  0  0  0
   29.4000   27.6300   36.3700 C   0  0  0  0  0  0  0  0  0  0  0  0
   30.6600   28.0500   36.8000 C   0  0  0  0  0  0  0  0  0  0  0  0
   31.5700   28.3600   35.7800 C   0  0  0  0  0  0  0  0  0  0  0  0
   31.3700   28.1000   34.4300 C   0  0  0  0  0  0  0  0  0  0  0  0
   30.1200   27.5900   34.0500 C   0  0  0  0  0  0  0  0  0  0  0  0
   29.1500   27.3400   35.0300 C   0  0  0  0  0  0  0  0  0  0  0  0
   27.8800   26.8900   34.6600 C   0  0  0  0  0  0  0  0  0  0  0  0
   27.4800   26.6100   33.3700 N   0  0  0  0  0  0  0  0  0  0  0  0
   31.0064   28.3124   38.2193 C   0  0  0  0  0  0  0  0  0  0  0  0
   32.1853   27.7759   38.7623 C   0  0  0  0  0  0  0  0  0  0  0  0
   32.5355   28.0278   40.0993 C   0  0  0  0  0  0  0  0  0  0  0  0
   33.8404   27.5298   40.6530 C   0  0  0  0  0  0  0  0  0  0  0  0
   33.6106   26.5951   41.7568 N   0  0  0  0  0  0  0  0  0  0  0  0
   34.1124   25.2248   41.6446 C   0  0  0  0  0  0  0  0  0  0  0  0
   33.2144   27.0958   43.0455 C   0  0  0  0  0  0  0  0  0  0  0  0
   33.8087   26.6884   44.0805 O   0  0  0  0  0  0  0  0  0  0  0  0
   32.0218   27.9971   43.2047 C   0  0  0  0  0  0  0  0  0  0  0  0
   31.9921   29.0482   42.2425 O   0  0  0  0  0  0  0  0  0  0  0  0
   31.6913   28.8153   40.8991 C   0  0  0  0  0  0  0  0  0  0  0  0
   30.5383   29.3833   40.3492 C   0  0  0  0  0  0  0  0  0  0  0  0
   30.1951   29.1341   39.0188 C   0  0  0  0  0  0  0  0  0  0  0  0
   23.6001   26.0040   36.0503 H   0  0  0  0  0  0  0  0  0  0  0  0
   24.6739   26.9932   37.0933 H   0  0  0  0  0  0  0  0  0  0  0  0
   32.5305   28.7761   36.0594 H   0  0  0  0  0  0  0  0  0  0  0  0
   32.1333   28.3208   33.6949 H   0  0  0  0  0  0  0  0  0  0  0  0
   29.9372   27.4182   32.9983 H   0  0  0  0  0  0  0  0  0  0  0  0
   26.5962   27.0149   32.9873 H   0  0  0  0  0  0  0  0  0  0  0  0
   28.1243   26.1388   32.6978 H   0  0  0  0  0  0  0  0  0  0  0  0
   32.8302   27.1650   38.1415 H   0  0  0  0  0  0  0  0  0  0  0  0
   34.4396   28.3936   41.0154 H   0  0  0  0  0  0  0  0  0  0  0  0
   34.4441   27.0459   39.8531 H   0  0  0  0  0  0  0  0  0  0  0  0
   33.6102   24.5646   42.3839 H   0  0  0  0  0  0  0  0  0  0  0  0
   33.9020   24.8217   40.6310 H   0  0  0  0  0  0  0  0  0  0  0  0
   35.2078   25.2116   41.8255 H   0  0  0  0  0  0  0  0  0  0  0  0
   32.0411   28.4553   44.2163 H   0  0  0  0  0  0  0  0  0  0  0  0
   31.0934   27.3913   43.1270 H   0  0  0  0  0  0  0  0  0  0  0  0
   29.8994   30.0086   40.9598 H   0  0  0  0  0  0  0  0  0  0  0  0
   29.3029   29.5924   38.6105 H   0  0  0  0  0  0  0  0  0  0  0  0
  1  2  1  0
  2  3  2  0
  2  4  1  0
  4  5  2  0
  5  6  1  0
  6  7  2  0
  7  8  1  0
  8  9  2  0
  9 10  1  0
 10 11  2  0
 11 12  1  0
 12 13  2  0
 13 14  1  0
  8 15  1  0
 15 16  2  0
 16 17  1  0
 17 18  1  0
 18 19  1  0
 19 20  1  0
 19 21  1  0
 21 22  2  0
 21 23  1  0
 23 24  1  0
 24 25  1  0
 25 26  1  0
 26 27  2  0
 13  4  1  0
 27 15  1  0
 12  7  1  0
 25 17  2  0
  1 28  1  0
  1 29  1  0
  9 30  1  0
 10 31  1  0
 11 32  1  0
 14 33  1  0
 14 34  1  0
 16 35  1  0
 18 36  1  0
 18 37  1  0
 20 38  1  0
 20 39  1  0
 20 40  1  0
 23 41  1  0
 23 42  1  0
 26 43  1  0
 27 44  1  0
M  END
$$$$
confid_7
     RDKit          3D

 44 47  0  0  0  0  0  0  0  0999 V2000
   24.5500   26.3900   36.2500 N   0  0  0  0  0  0  0  0  0  0  0  0
   25.6000   26.1300   35.4000 C   0  0  0  0  0  0  0  0  0  0  0  0
   25.4300   25.4300   34.4200 O   0  0  0  0  0  0  0  0  0  0  0  0
   26.9800   26.6300   35.7100 C   0  0  0  0  0  0  0  0  0  0  0  0
   27.3200   26.8200   36.9800 N   0  0  0  0  0  0  0  0  0  0  0  0
   28.4700   27.4000   37.3100 N   0  0  0  0  0  0  0  0  0  0  0  0
   29.4000   27.6300   36.3700 C   0  0  0  0  0  0  0  0  0  0  0  0
   30.6600   28.0500   36.8000 C   0  0  0  0  0  0  0  0  0  0  0  0
   31.5700   28.3600   35.7800 C   0  0  0  0  0  0  0  0  0  0  0  0
   31.3700   28.1000   34.4300 C   0  0  0  0  0  0  0  0  0  0  0  0
   30.1200   27.5900   34.0500 C   0  0  0  0  0  0  0  0  0  0  0  0
   29.1500   27.3400   35.0300 C   0  0  0  0  0  0  0  0  0  0  0  0
   27.8800   26.8900   34.6600 C   0  0  0  0  0  0  0  0  0  0  0  0
   27.4800   26.6100   33.3700 N   0  0  0  0  0  0  0  0  0  0  0  0
   31.0072   28.3129   38.2193 C   0  0  0  0  0  0  0  0  0  0  0  0
   32.1789   27.7696   38.7637 C   0  0  0  0  0  0  0  0  0  0  0  0
   32.5465   28.0172   40.1008 C   0  0  0  0  0  0  0  0  0  0  0  0
   33.8138   27.3745   40.6161 C   0  0  0  0  0  0  0  0  0  0  0  0
   34.6944   28.3734   41.2302 N   0  0  0  0  0  0  0  0  0  0  0  0
   35.9360   28.7870   40.5707 C   0  0  0  0  0  0  0  0  0  0  0  0
   34.3281   28.9547   42.4907 C   0  0  0  0  0  0  0  0  0  0  0  0
   35.1182   29.7361   43.0876 O   0  0  0  0  0  0  0  0  0  0  0  0
   32.9893   28.6600   43.0883 C   0  0  0  0  0  0  0  0  0  0  0  0
   31.9523   29.1663   42.2537 O   0  0  0  0  0  0  0  0  0  0  0  0
   31.7023   28.8343   40.9079 C   0  0  0  0  0  0  0  0  0  0  0  0
   30.5436   29.3815   40.3437 C   0  0  0  0  0  0  0  0  0  0  0  0
   30.1985   29.1305   39.0170 C   0  0  0  0  0  0  0  0  0  0  0  0
   23.6001   26.0040   36.0503 H   0  0  0  0  0  0  0  0  0  0  0  0
   24.6739   26.9932   37.0933 H   0  0  0  0  0  0  0  0  0  0  0  0
   32.5306   28.7758   36.0596 H   0  0  0  0  0  0  0  0  0  0  0  0
   32.1333   28.3208   33.6949 H   0  0  0  0  0  0  0  0  0  0  0  0
   29.9372   27.4181   32.9983 H   0  0  0  0  0  0  0  0  0  0  0  0
   26.5962   27.0149   32.9873 H   0  0  0  0  0  0  0  0  0  0  0  0
   28.1243   26.1388   32.6978 H   0  0  0  0  0  0  0  0  0  0  0  0
   32.8027   27.1406   38.1390 H   0  0  0  0  0  0  0  0  0  0  0  0
   33.5623   26.5781   41.3468 H   0  0  0  0  0  0  0  0  0  0  0  0
   34.3503   26.8489   39.7963 H   0  0  0  0  0  0  0  0  0  0  0  0
   36.8051   28.5214   41.2086 H   0  0  0  0  0  0  0  0  0  0  0  0
   36.0589   28.2937   39.5836 H   0  0  0  0  0  0  0  0  0  0  0  0
   35.9240   29.8853   40.4066 H   0  0  0  0  0  0  0  0  0  0  0  0
   32.8551   27.5706   43.2488 H   0  0  0  0  0  0  0  0  0  0  0  0
   32.9080   29.1478   44.0828 H   0  0  0  0  0  0  0  0  0  0  0  0
   29.9033   30.0164   40.9435 H   0  0  0  0  0  0  0  0  0  0  0  0
   29.3063   29.5893   38.6092 H   0  0  0  0  0  0  0  0  0  0  0  0
  1  2  1  0
  2  3  2  0
  2  4  1  0
  4  5  2  0
  5  6  1  0
  6  7  2  0
  7  8  1  0
  8  9  2  0
  9 10  1  0
 10 11  2  0
 11 12  1  0
 12 13  2  0
 13 14  1  0
  8 15  1  0
 15 16  2  0
 16 17  1  0
 17 18  1  0
 18 19  1  0
 19 20  1  0
 19 21  1  0
 21 22  2  0
 21 23  1  0
 23 24  1  0
 24 25  1  0
 25 26  1  0
 26 27  2  0
 13  4  1  0
 27 15  1  0
 12  7  1  0
 25 17  2  0
  1 28  1  0
  1 29  1  0
  9 30  1  0
 10 31  1  0
 11 32  1  0
 14 33  1  0
 14 34  1  0
 16 35  1  0
 18 36  1  0
 18 37  1  0
 20 38  1  0
 20 39  1  0
 20 40  1  0
 23 41  1  0
 23 42  1  0
 26 43  1  0
 27 44  1  0
M  END
$$$$
confid_8
     RDKit          3D

 44 47  0  0  0  0  0  0  0  0999 V2000
   24.5500   26.3900   36.2500 N   0  0  0  0  0  0  0  0  0  0  0  0
   25.6000   26.1300   35.4000 C   0  0  0  0  0  0  0  0  0  0  0  0
   25.4300   25.4300   34.4200 O   0  0  0  0  0  0  0  0  0  0  0  0
   26.9800   26.6300   35.7100 C   0  0  0  0  0  0  0  0  0  0  0  0
   27.3200   26.8200   36.9800 N   0  0  0  0  0  0  0  0  0  0  0  0
   28.4700   27.4000   37.3100 N   0  0  0  0  0  0  0  0  0  0  0  0
   29.4000   27.6300   36.3700 C   0  0  0  0  0  0  0  0  0  0  0  0
   30.6600   28.0500   36.8000 C   0  0  0  0  0  0  0  0  0  0  0  0
   31.5700   28.3600   35.7800 C   0  0  0  0  0  0  0  0  0  0  0  0
   31.3700   28.1000   34.4300 C   0  0  0  0  0  0  0  0  0  0  0  0
   30.1200   27.5900   34.0500 C   0  0  0  0  0  0  0  0  0  0  0  0
   29.1500   27.3400   35.0300 C   0  0  0  0  0  0  0  0  0  0  0  0
   27.8800   26.8900   34.6600 C   0  0  0  0  0  0  0  0  0  0  0  0
   27.4800   26.6100   33.3700 N   0  0  0  0  0  0  0  0  0  0  0  0
   31.0059   28.3133   38.2193 C   0  0  0  0  0  0  0  0  0  0  0  0
   30.1962   29.1339   39.0184 C   0  0  0  0  0  0  0  0  0  0  0  0
   30.5209   29.3907   40.3646 C   0  0  0  0  0  0  0  0  0  0  0  0
   29.5974   30.2881   41.1558 C   0  0  0  0  0  0  0  0  0  0  0  0
   29.1871   29.6418   42.4064 N   0  0  0  0  0  0  0  0  0  0  0  0
   27.8181   29.1495   42.5834 C   0  0  0  0  0  0  0  0  0  0  0  0
   30.1451   29.4829   43.4638 C   0  0  0  0  0  0  0  0  0  0  0  0
   29.7906   29.0215   44.5829 O   0  0  0  0  0  0  0  0  0  0  0  0
   31.5797   29.8359   43.2314 C   0  0  0  0  0  0  0  0  0  0  0  0
   32.1448   28.9865   42.2376 O   0  0  0  0  0  0  0  0  0  0  0  0
   31.7087   28.8207   40.9086 C   0  0  0  0  0  0  0  0  0  0  0  0
   32.5129   28.0162   40.0922 C   0  0  0  0  0  0  0  0  0  0  0  0
   32.1723   27.7672   38.7639 C   0  0  0  0  0  0  0  0  0  0  0  0
   23.6001   26.0040   36.0504 H   0  0  0  0  0  0  0  0  0  0  0  0
   24.6740   26.9931   37.0934 H   0  0  0  0  0  0  0  0  0  0  0  0
   32.5310   28.7746   36.0598 H   0  0  0  0  0  0  0  0  0  0  0  0
   32.1352   28.3154   33.6954 H   0  0  0  0  0  0  0  0  0  0  0  0
   29.9365   27.3924   33.0016 H   0  0  0  0  0  0  0  0  0  0  0  0
   27.4182   25.6173   33.0515 H   0  0  0  0  0  0  0  0  0  0  0  0
   27.5826   27.3394   32.6301 H   0  0  0  0  0  0  0  0  0  0  0  0
   29.3137   29.5864   38.5818 H   0  0  0  0  0  0  0  0  0  0  0  0
   30.0995   31.2552   41.3656 H   0  0  0  0  0  0  0  0  0  0  0  0
   28.7006   30.5576   40.5563 H   0  0  0  0  0  0  0  0  0  0  0  0
   27.3299   29.6935   43.4192 H   0  0  0  0  0  0  0  0  0  0  0  0
   27.2098   29.2931   41.6658 H   0  0  0  0  0  0  0  0  0  0  0  0
   27.8386   28.0637   42.8154 H   0  0  0  0  0  0  0  0  0  0  0  0
   31.6855   30.8989   42.9327 H   0  0  0  0  0  0  0  0  0  0  0  0
   32.1544   29.7040   44.1727 H   0  0  0  0  0  0  0  0  0  0  0  0
   33.4161   27.5757   40.4960 H   0  0  0  0  0  0  0  0  0  0  0  0
   32.8154   27.1368   38.1618 H   0  0  0  0  0  0  0  0  0  0  0  0
  1  2  1  0
  2  3  2  0
  2  4  1  0
  4  5  2  0
  5  6  1  0
  6  7  2  0
  7  8  1  0
  8  9  2  0
  9 10  1  0
 10 11  2  0
 11 12  1  0
 12 13  2  0
 13 14  1  0
  8 15  1  0
 15 16  2  0
 16 17  1  0
 17 18  1  0
 18 19  1  0
 19 20  1  0
 19 21  1  0
 21 22  2  0
 21 23  1  0
 23 24  1  0
 24 25  1  0
 25 26  1  0
 26 27  2  0
 13  4  1  0
 27 15  1  0
 12  7  1  0
 25 17  2  0
  1 28  1  0
  1 29  1  0
  9 30  1  0
 10 31  1  0
 11 32  1  0
 14 33  1  0
 14 34  1  0
 16 35  1  0
 18 36  1  0
 18 37  1  0
 20 38  1  0
 20 39  1  0
 20 40  1  0
 23 41  1  0
 23 42  1  0
 26 43  1  0
 27 44  1  0
M  END
$$$$
