confid_0
     RDKit          3D

 40 43  0  0  0  0  0  0  0  0999 V2000
   24.4800   26.1000   36.1300 N   0  0  0  0  0  0  0  0  0  0  0  0
   25.2500   26.2500   34.9900 C   0  0  0  0  0  0  0  0  0  0  0  0
   24.7400   25.7600   33.9900 O   0  0  0  0  0  0  0  0  0  0  0  0
   26.5900   26.8900   34.9600 C   0  0  0  0  0  0  0  0  0  0  0  0
   27.0600   27.2400   36.1600 N   0  0  0  0  0  0  0  0  0  0  0  0
   28.3000   27.7100   36.2400 N   0  0  0  0  0  0  0  0  0  0  0  0
   29.0500   27.9600   35.1500 C   0  0  0  0  0  0  0  0  0  0  0  0
   30.3400   28.4900   35.2600 C   0  0  0  0  0  0  0  0  0  0  0  0
   31.1100   28.8200   34.1400 C   0  0  0  0  0  0  0  0  0  0  0  0
   30.5200   28.6700   32.8800 C   0  0  0  0  0  0  0  0  0  0  0  0
   29.2900   28.0200   32.7700 C   0  0  0  0  0  0  0  0  0  0  0  0
   28.5200   27.7100   33.8900 C   0  0  0  0  0  0  0  0  0  0  0  0
   27.2700   27.0800   33.7600 C   0  0  0  0  0  0  0  0  0  0  0  0
   26.7500   26.8800   32.4900 N   0  0  0  0  0  0  0  0  0  0  0  0
   23.5420   25.0346   36.3684 C   0  0  0  0  0  0  0  0  0  0  0  0
   23.7254   23.7524   35.8198 C   0  0  0  0  0  0  0  0  0  0  0  0
   22.8013   22.7408   36.1045 C   0  0  0  0  0  0  0  0  0  0  0  0
   22.9710   21.4351   35.5499 N   0  0  0  0  0  0  0  0  0  0  0  0
   23.9265   20.7433   34.6632 C   0  0  0  0  0  0  0  0  0  0  0  0
   23.2320   19.4234   34.6927 C   0  0  0  0  0  0  0  0  0  0  0  0
   23.9534   18.4255   35.3254 F   0  0  0  0  0  0  0  0  0  0  0  0
   22.6885   19.0497   33.4754 F   0  0  0  0  0  0  0  0  0  0  0  0
   22.2740   20.1349   35.5878 C   0  0  0  0  0  0  0  0  0  0  0  0
   21.7157   23.0138   36.9424 C   0  0  0  0  0  0  0  0  0  0  0  0
   21.5770   24.2904   37.4885 C   0  0  0  0  0  0  0  0  0  0  0  0
   22.4853   25.2589   37.1974 N   0  0  0  0  0  0  0  0  0  0  0  0
   24.5555   26.8385   36.8654 H   0  0  0  0  0  0  0  0  0  0  0  0
   30.7580   28.6629   36.2441 H   0  0  0  0  0  0  0  0  0  0  0  0
   32.0983   29.2479   34.2470 H   0  0  0  0  0  0  0  0  0  0  0  0
   31.0669   28.9543   31.9901 H   0  0  0  0  0  0  0  0  0  0  0  0
   28.9258   27.8587   31.7656 H   0  0  0  0  0  0  0  0  0  0  0  0
   27.2968   26.3785   31.7554 H   0  0  0  0  0  0  0  0  0  0  0  0
   25.7672   27.1501   32.2658 H   0  0  0  0  0  0  0  0  0  0  0  0
   24.5842   23.5328   35.1989 H   0  0  0  0  0  0  0  0  0  0  0  0
   23.9343   21.2065   33.6515 H   0  0  0  0  0  0  0  0  0  0  0  0
   24.9397   20.7102   35.1220 H   0  0  0  0  0  0  0  0  0  0  0  0
   21.2541   20.2197   35.1510 H   0  0  0  0  0  0  0  0  0  0  0  0
   22.2596   19.7235   36.6216 H   0  0  0  0  0  0  0  0  0  0  0  0
   20.9910   22.2443   37.1766 H   0  0  0  0  0  0  0  0  0  0  0  0
   20.7476   24.5116   38.1469 H   0  0  0  0  0  0  0  0  0  0  0  0
  1  2  1  0
  2  3  2  0
  2  4  1  0
  4  5  2  0
  5  6  1  0
  6  7  2  0
  7  8  1  0
  8  9  2  0
  9 10  1  0
 10 11  2  0
 11 12  1  0
 12 13  2  0
 13 14  1  0
  1 15  1  0
 15 16  2  0
 16 17  1  0
 17 18  1  0
 18 19  1  0
 19 20  1  0
 20 21  1  0
 20 22  1  0
 20 23  1  0
 17 24  2  0
 24 25  1  0
 25 26  2  0
 13  4  1  0
 26 15  1  0
 12  7  1  0
 23 18  1  0
  1 27  1  0
  8 28  1  0
  9 29  1  0
 10 30  1  0
 11 31  1  0
 14 32  1  0
 14 33  1  0
 16 34  1  0
 19 35  1  0
 19 36  1  0
 23 37  1  0
 23 38  1  0
 24 39  1  0
 25 40  1  0
M  END
$$$$
confid_1
     RDKit          3D

 40 43  0  0  0  0  0  0  0  0999 V2000
   24.4800   26.1000   36.1300 N   0  0  0  0  0  0  0  0  0  0  0  0
   25.2500   26.2500   34.9900 C   0  0  0  0  0  0  0  0  0  0  0  0
   24.7400   25.7600   33.9900 O   0  0  0  0  0  0  0  0  0  0  0  0
   26.5900   26.8900   34.9600 C   0  0  0  0  0  0  0  0  0  0  0  0
   27.0600   27.2400   36.1600 N   0  0  0  0  0  0  0  0  0  0  0  0
   28.3000   27.7100   36.2400 N   0  0  0  0  0  0  0  0  0  0  0  0
   29.0500   27.9600   35.1500 C   0  0  0  0  0  0  0  0  0  0  0  0
   30.3400   28.4900   35.2600 C   0  0  0  0  0  0  0  0  0  0  0  0
   31.1100   28.8200   34.1400 C   0  0  0  0  0  0  0  0  0  0  0  0
   30.5200   28.6700   32.8800 C   0  0  0  0  0  0  0  0  0  0  0  0
   29.2900   28.0200   32.7700 C   0  0  0  0  0  0  0  0  0  0  0  0
   28.5200   27.7100   33.8900 C   0  0  0  0  0  0  0  0  0  0  0  0
   27.2700   27.0800   33.7600 C   0  0  0  0  0  0  0  0  0  0  0  0
   26.7500   26.8800   32.4900 N   0  0  0  0  0  0  0  0  0  0  0  0
   23.0420   26.0411   36.1574 C   0  0  0  0  0  0  0  0  0  0  0  0
   22.2572   26.6912   35.1877 C   0  0  0  0  0  0  0  0  0  0  0  0
   20.8618   26.6281   35.2729 C   0  0  0  0  0  0  0  0  0  0  0  0
   20.0516   27.2790   34.2926 N   0  0  0  0  0  0  0  0  0  0  0  0
   20.2529   28.0877   33.0746 C   0  0  0  0  0  0  0  0  0  0  0  0
   18.8034   28.2817   32.7805 C   0  0  0  0  0  0  0  0  0  0  0  0
   18.3786   27.6544   31.6217 F   0  0  0  0  0  0  0  0  0  0  0  0
   18.3771   29.5927   32.9084 F   0  0  0  0  0  0  0  0  0  0  0  0
   18.6143   27.4632   34.0133 C   0  0  0  0  0  0  0  0  0  0  0  0
   20.2657   25.9314   36.3285 C   0  0  0  0  0  0  0  0  0  0  0  0
   21.0742   25.3170   37.2857 C   0  0  0  0  0  0  0  0  0  0  0  0
   22.4277   25.3894   37.1830 N   0  0  0  0  0  0  0  0  0  0  0  0
   24.9753   25.9887   37.0432 H   0  0  0  0  0  0  0  0  0  0  0  0
   30.7582   28.6623   36.2441 H   0  0  0  0  0  0  0  0  0  0  0  0
   32.0994   29.2455   34.2469 H   0  0  0  0  0  0  0  0  0  0  0  0
   31.0715   28.9442   31.9898 H   0  0  0  0  0  0  0  0  0  0  0  0
   28.9437   27.8129   31.7669 H   0  0  0  0  0  0  0  0  0  0  0  0
   26.7152   27.6568   31.7928 H   0  0  0  0  0  0  0  0  0  0  0  0
   26.3612   25.9531   32.2111 H   0  0  0  0  0  0  0  0  0  0  0  0
   22.7189   27.2574   34.3892 H   0  0  0  0  0  0  0  0  0  0  0  0
   20.7778   29.0394   33.3134 H   0  0  0  0  0  0  0  0  0  0  0  0
   20.7790   27.4985   32.2908 H   0  0  0  0  0  0  0  0  0  0  0  0
   18.1202   28.0266   34.8359 H   0  0  0  0  0  0  0  0  0  0  0  0
   18.1215   26.4858   33.8131 H   0  0  0  0  0  0  0  0  0  0  0  0
   19.1880   25.8725   36.4131 H   0  0  0  0  0  0  0  0  0  0  0  0
   20.6254   24.7837   38.1130 H   0  0  0  0  0  0  0  0  0  0  0  0
  1  2  1  0
  2  3  2  0
  2  4  1  0
  4  5  2  0
  5  6  1  0
  6  7  2  0
  7  8  1  0
  8  9  2  0
  9 10  1  0
 10 11  2  0
 11 12  1  0
 12 13  2  0
 13 14  1  0
  1 15  1  0
 15 16  2  0
 16 17  1  0
 17 18  1  0
 18 19  1  0
 19 20  1  0
 20 21  1  0
 20 22  1  0
 20 23  1  0
 17 24  2  0
 24 25  1  0
 25 26  2  0
 13  4  1  0
 26 15  1  0
 12  7  1  0
 23 18  1  0
  1 27  1  0
  8 28  1  0
  9 29  1  0
 10 30  1  0
 11 31  1  0
 14 32  1  0
 14 33  1  0
 16 34  1  0
 19 35  1  0
 19 36  1  0
 23 37  1  0
 23 38  1  0
 24 39  1  0
 25 40  1  0
M  END
$$$$
confid_2
     RDKit          3D

 40 43  0  0  0  0  0  0  0  0999 V2000
   24.4800   26.1000   36.1300 N   0  0  0  0  0  0  0  0  0  0  0  0
   25.2500   26.2500   34.9900 C   0  0  0  0  0  0  0  0  0  0  0  0
   24.7400   25.7600   33.9900 O   0  0  0  0  0  0  0  0  0  0  0  0
   26.5900   26.8900   34.9600 C   0  0  0  0  0  0  0  0  0  0  0  0
   27.0600   27.2400   36.1600 N   0  0  0  0  0  0  0  0  0  0  0  0
   28.3000   27.7100   36.2400 N   0  0  0  0  0  0  0  0  0  0  0  0
   29.0500   27.9600   35.1500 C   0  0  0  0  0  0  0  0  0  0  0  0
   30.3400   28.4900   35.2600 C   0  0  0  0  0  0  0  0  0  0  0  0
   31.1100   28.8200   34.1400 C   0  0  0  0  0  0  0  0  0  0  0  0
   30.5200   28.6700   32.8800 C   0  0  0  0  0  0  0  0  0  0  0  0
   29.2900   28.0200   32.7700 C   0  0  0  0  0  0  0  0  0  0  0  0
   28.5200   27.7100   33.8900 C   0  0  0  0  0  0  0  0  0  0  0  0
   27.2700   27.0800   33.7600 C   0  0  0  0  0  0  0  0  0  0  0  0
   26.7500   26.8800   32.4900 N   0  0  0  0  0  0  0  0  0  0  0  0
   23.5433   25.0335   36.3690 C   0  0  0  0  0  0  0  0  0  0  0  0
   23.7278   23.7516   35.8203 C   0  0  0  0  0  0  0  0  0  0  0  0
   22.8049   22.7390   36.1055 C   0  0  0  0  0  0  0  0  0  0  0  0
   22.9757   21.4335   35.5508 N   0  0  0  0  0  0  0  0  0  0  0  0
   22.2800   20.1326   35.5890 C   0  0  0  0  0  0  0  0  0  0  0  0
   23.2383   19.4222   34.6932 C   0  0  0  0  0  0  0  0  0  0  0  0
   22.6944   19.0480   33.4762 F   0  0  0  0  0  0  0  0  0  0  0  0
   23.9612   18.4249   35.3254 F   0  0  0  0  0  0  0  0  0  0  0  0
   23.9314   20.7427   34.6634 C   0  0  0  0  0  0  0  0  0  0  0  0
   21.7195   23.0108   36.9441 C   0  0  0  0  0  0  0  0  0  0  0  0
   21.5798   24.2873   37.4903 C   0  0  0  0  0  0  0  0  0  0  0  0
   22.4869   25.2567   37.1986 N   0  0  0  0  0  0  0  0  0  0  0  0
   24.5549   26.8388   36.8651 H   0  0  0  0  0  0  0  0  0  0  0  0
   30.7582   28.6623   36.2441 H   0  0  0  0  0  0  0  0  0  0  0  0
   32.0994   29.2455   34.2469 H   0  0  0  0  0  0  0  0  0  0  0  0
   31.0716   28.9442   31.9898 H   0  0  0  0  0  0  0  0  0  0  0  0
   28.9437   27.8128   31.7669 H   0  0  0  0  0  0  0  0  0  0  0  0
   26.7157   27.6566   31.7925 H   0  0  0  0  0  0  0  0  0  0  0  0
   26.3616   25.9528   32.2111 H   0  0  0  0  0  0  0  0  0  0  0  0
   24.5864   23.5329   35.1989 H   0  0  0  0  0  0  0  0  0  0  0  0
   21.2598   20.2163   35.1528 H   0  0  0  0  0  0  0  0  0  0  0  0
   22.2667   19.7211   36.6228 H   0  0  0  0  0  0  0  0  0  0  0  0
   24.9449   20.7107   35.1215 H   0  0  0  0  0  0  0  0  0  0  0  0
   23.9380   21.2061   33.6517 H   0  0  0  0  0  0  0  0  0  0  0  0
   20.9958   22.2405   37.1786 H   0  0  0  0  0  0  0  0  0  0  0  0
   20.7505   24.5075   38.1491 H   0  0  0  0  0  0  0  0  0  0  0  0
  1  2  1  0
  2  3  2  0
  2  4  1  0
  4  5  2  0
  5  6  1  0
  6  7  2  0
  7  8  1  0
  8  9  2  0
  9 10  1  0
 10 11  2  0
 11 12  1  0
 12 13  2  0
 13 14  1  0
  1 15  1  0
 15 16  2  0
 16 17  1  0
 17 18  1  0
 18 19  1  0
 19 20  1  0
 20 21  1  0
 20 22  1  0
 20 23  1  0
 17 24  2  0
 24 25  1  0
 25 26  2  0
 13  4  1  0
 26 15  1  0
 12  7  1  0
 23 18  1  0
  1 27  1  0
  8 28  1  0
  9 29  1  0
 10 30  1  0
 11 31  1  0
 14 32  1  0
 14 33  1  0
 16 34  1  0
 19 35  1  0
 19 36  1  0
 23 37  1  0
 23 38  1  0
 24 39  1  0
 25 40  1  0
M  END
$$$$
confid_3
     RDKit          3D

 40 43  0  0  0  0  0  0  0  0999 V2000
   24.4800   26.1000   36.1300 N   0  0  0  0  0  0  0  0  0  0  0  0
   25.2500   26.2500   34.9900 C   0  0  0  0  0  0  0  0  0  0  0  0
   24.7400   25.7600   33.9900 O   0  0  0  0  0  0  0  0  0  0  0  0
   26.5900   26.8900   34.9600 C   0  0  0  0  0  0  0  0  0  0  0  0
   27.0600   27.2400   36.1600 N   0  0  0  0  0  0  0  0  0  0  0  0
   28.3000   27.7100   36.2400 N   0  0  0  0  0  0  0  0  0  0  0  0
   29.0500   27.9600   35.1500 C   0  0  0  0  0  0  0  0  0  0  0  0
   30.3400   28.4900   35.2600 C   0  0  0  0  0  0  0  0  0  0  0  0
   31.1100   28.8200   34.1400 C   0  0  0  0  0  0  0  0  0  0  0  0
   30.5200   28.6700   32.8800 C   0  0  0  0  0  0  0  0  0  0  0  0
   29.2900   28.0200   32.7700 C   0  0  0  0  0  0  0  0  0  0  0  0
   28.5200   27.7100   33.8900 C   0  0  0  0  0  0  0  0  0  0  0  0
   27.2700   27.0800   33.7600 C   0  0  0  0  0  0  0  0  0  0  0  0
   26.7500   26.8800   32.4900 N   0  0  0  0  0  0  0  0  0  0  0  0
   23.5433   25.0335   36.3690 C   0  0  0  0  0  0  0  0  0  0  0  0
   23.7278   23.7516   35.8203 C   0  0  0  0  0  0  0  0  0  0  0  0
   22.8049   22.7390   36.1055 C   0  0  0  0  0  0  0  0  0  0  0  0
   22.9757   21.4335   35.5508 N   0  0  0  0  0  0  0  0  0  0  0  0
   23.9314   20.7427   34.6634 C   0  0  0  0  0  0  0  0  0  0  0  0
   23.2383   19.4222   34.6932 C   0  0  0  0  0  0  0  0  0  0  0  0
   22.6944   19.0480   33.4762 F   0  0  0  0  0  0  0  0  0  0  0  0
   23.9612   18.4249   35.3254 F   0  0  0  0  0  0  0  0  0  0  0  0
   22.2800   20.1326   35.5890 C   0  0  0  0  0  0  0  0  0  0  0  0
   21.7195   23.0108   36.9441 C   0  0  0  0  0  0  0  0  0  0  0  0
   21.5798   24.2873   37.4903 C   0  0  0  0  0  0  0  0  0  0  0  0
   22.4869   25.2567   37.1986 N   0  0  0  0  0  0  0  0  0  0  0  0
   24.5549   26.8388   36.8651 H   0  0  0  0  0  0  0  0  0  0  0  0
   30.7582   28.6623   36.2441 H   0  0  0  0  0  0  0  0  0  0  0  0
   32.0994   29.2455   34.2469 H   0  0  0  0  0  0  0  0  0  0  0  0
   31.0716   28.9442   31.9898 H   0  0  0  0  0  0  0  0  0  0  0  0
   28.9437   27.8128   31.7669 H   0  0  0  0  0  0  0  0  0  0  0  0
   26.3616   25.9528   32.2111 H   0  0  0  0  0  0  0  0  0  0  0  0
   26.7157   27.6566   31.7925 H   0  0  0  0  0  0  0  0  0  0  0  0
   24.5864   23.5329   35.1989 H   0  0  0  0  0  0  0  0  0  0  0  0
   23.9380   21.2061   33.6517 H   0  0  0  0  0  0  0  0  0  0  0  0
   24.9449   20.7107   35.1216 H   0  0  0  0  0  0  0  0  0  0  0  0
   21.2598   20.2163   35.1528 H   0  0  0  0  0  0  0  0  0  0  0  0
   22.2667   19.7211   36.6228 H   0  0  0  0  0  0  0  0  0  0  0  0
   20.9958   22.2405   37.1786 H   0  0  0  0  0  0  0  0  0  0  0  0
   20.7505   24.5075   38.1491 H   0  0  0  0  0  0  0  0  0  0  0  0
  1  2  1  0
  2  3  2  0
  2  4  1  0
  4  5  2  0
  5  6  1  0
  6  7  2  0
  7  8  1  0
  8  9  2  0
  9 10  1  0
 10 11  2  0
 11 12  1  0
 12 13  2  0
 13 14  1  0
  1 15  1  0
 15 16  2  0
 16 17  1  0
 17 18  1  0
 18 19  1  0
 19 20  1  0
 20 21  1  0
 20 22  1  0
 20 23  1  0
 17 24  2  0
 24 25  1  0
 25 26  2  0
 13  4  1  0
 26 15  1  0
 12  7  1  0
 23 18  1  0
  1 27  1  0
  8 28  1  0
  9 29  1  0
 10 30  1  0
 11 31  1  0
 14 32  1  0
 14 33  1  0
 16 34  1  0
 19 35  1  0
 19 36  1  0
 23 37  1  0
 23 38  1  0
 24 39  1  0
 25 40  1  0
M  END
$$$$
confid_4
     RDKit          3D

 40 43  0  0  0  0  0  0  0  0999 V2000
   24.4800   26.1000   36.1300 N   0  0  0  0  0  0  0  0  0  0  0  0
   25.2500   26.2500   34.9900 C   0  0  0  0  0  0  0  0  0  0  0  0
   24.7400   25.7600   33.9900 O   0  0  0  0  0  0  0  0  0  0  0  0
   26.5900   26.8900   34.9600 C   0  0  0  0  0  0  0  0  0  0  0  0
   27.0600   27.2400   36.1600 N   0  0  0  0  0  0  0  0  0  0  0  0
   28.3000   27.7100   36.2400 N   0  0  0  0  0  0  0  0  0  0  0  0
   29.0500   27.9600   35.1500 C   0  0  0  0  0  0  0  0  0  0  0  0
   30.3400   28.4900   35.2600 C   0  0  0  0  0  0  0  0  0  0  0  0
   31.1100   28.8200   34.1400 C   0  0  0  0  0  0  0  0  0  0  0  0
   30.5200   28.6700   32.8800 C   0  0  0  0  0  0  0  0  0  0  0  0
   29.2900   28.0200   32.7700 C   0  0  0  0  0  0  0  0  0  0  0  0
   28.5200   27.7100   33.8900 C   0  0  0  0  0  0  0  0  0  0  0  0
   27.2700   27.0800   33.7600 C   0  0  0  0  0  0  0  0  0  0  0  0
   26.7500   26.8800   32.4900 N   0  0  0  0  0  0  0  0  0  0  0  0
   23.0417   26.0505   36.1581 C   0  0  0  0  0  0  0  0  0  0  0  0
   22.2605   26.7030   35.1871 C   0  0  0  0  0  0  0  0  0  0  0  0
   20.8648   26.6489   35.2731 C   0  0  0  0  0  0  0  0  0  0  0  0
   20.0583   27.3020   34.2912 N   0  0  0  0  0  0  0  0  0  0  0  0
   18.6221   27.4942   34.0116 C   0  0  0  0  0  0  0  0  0  0  0  0
   18.8159   28.3067   32.7757 C   0  0  0  0  0  0  0  0  0  0  0  0
   18.3870   27.6776   31.6194 F   0  0  0  0  0  0  0  0  0  0  0  0
   18.3975   29.6208   32.8985 F   0  0  0  0  0  0  0  0  0  0  0  0
   20.2642   28.1049   33.0702 C   0  0  0  0  0  0  0  0  0  0  0  0
   20.2648   25.9588   36.3309 C   0  0  0  0  0  0  0  0  0  0  0  0
   21.0699   25.3417   37.2893 C   0  0  0  0  0  0  0  0  0  0  0  0
   22.4238   25.4052   37.1857 N   0  0  0  0  0  0  0  0  0  0  0  0
   24.9753   25.9843   37.0426 H   0  0  0  0  0  0  0  0  0  0  0  0
   30.7580   28.6629   36.2441 H   0  0  0  0  0  0  0  0  0  0  0  0
   32.0983   29.2479   34.2470 H   0  0  0  0  0  0  0  0  0  0  0  0
   31.0669   28.9543   31.9901 H   0  0  0  0  0  0  0  0  0  0  0  0
   28.9258   27.8587   31.7656 H   0  0  0  0  0  0  0  0  0  0  0  0
   27.2969   26.3789   31.7552 H   0  0  0  0  0  0  0  0  0  0  0  0
   25.7670   27.1499   32.2661 H   0  0  0  0  0  0  0  0  0  0  0  0
   22.7252   27.2641   34.3868 H   0  0  0  0  0  0  0  0  0  0  0  0
   18.1318   28.0637   34.8323 H   0  0  0  0  0  0  0  0  0  0  0  0
   18.1231   26.5192   33.8153 H   0  0  0  0  0  0  0  0  0  0  0  0
   20.7950   29.0542   33.3055 H   0  0  0  0  0  0  0  0  0  0  0  0
   20.7867   27.5097   32.2886 H   0  0  0  0  0  0  0  0  0  0  0  0
   19.1868   25.9069   36.4163 H   0  0  0  0  0  0  0  0  0  0  0  0
   20.6182   24.8133   38.1182 H   0  0  0  0  0  0  0  0  0  0  0  0
  1  2  1  0
  2  3  2  0
  2  4  1  0
  4  5  2  0
  5  6  1  0
  6  7  2  0
  7  8  1  0
  8  9  2  0
  9 10  1  0
 10 11  2  0
 11 12  1  0
 12 13  2  0
 13 14  1  0
  1 15  1  0
 15 16  2  0
 16 17  1  0
 17 18  1  0
 18 19  1  0
 19 20  1  0
 20 21  1  0
 20 22  1  0
 20 23  1  0
 17 24  2  0
 24 25  1  0
 25 26  2  0
 13  4  1  0
 26 15  1  0
 12  7  1  0
 23 18  1  0
  1 27  1  0
  8 28  1  0
  9 29  1  0
 10 30  1  0
 11 31  1  0
 14 32  1  0
 14 33  1  0
 16 34  1  0
 19 35  1  0
 19 36  1  0
 23 37  1  0
 23 38  1  0
 24 39  1  0
 25 40  1  0
M  END
$$$$
confid_5
     RDKit          3D

 40 43  0  0  0  0  0  0  0  0999 V2000
   24.4800   26.1000   36.1300 N   0  0  0  0  0  0  0  0  0  0  0  0
   25.2500   26.2500   34.9900 C   0  0  0  0  0  0  0  0  0  0  0  0
   24.7400   25.7600   33.9900 O   0  0  0  0  0  0  0  0  0  0  0  0
   26.5900   26.8900   34.9600 C   0  0  0  0  0  0  0  0  0  0  0  0
   27.0600   27.2400   36.1600 N   0  0  0  0  0  0  0  0  0  0  0  0
   28.3000   27.7100   36.2400 N   0  0  0  0  0  0  0  0  0  0  0  0
   29.0500   27.9600   35.1500 C   0  0  0  0  0  0  0  0  0  0  0  0
   30.3400   28.4900   35.2600 C   0  0  0  0  0  0  0  0  0  0  0  0
   31.1100   28.8200   34.1400 C   0  0  0  0  0  0  0  0  0  0  0  0
   30.5200   28.6700   32.8800 C   0  0  0  0  0  0  0  0  0  0  0  0
   29.2900   28.0200   32.7700 C   0  0  0  0  0  0  0  0  0  0  0  0
   28.5200   27.7100   33.8900 C   0  0  0  0  0  0  0  0  0  0  0  0
   27.2700   27.0800   33.7600 C   0  0  0  0  0  0  0  0  0  0  0  0
   26.7500   26.8800   32.4900 N   0  0  0  0  0  0  0  0  0  0  0  0
   23.0416   26.0542   36.1583 C   0  0  0  0  0  0  0  0  0  0  0  0
   22.2620   26.7085   35.1872 C   0  0  0  0  0  0  0  0  0  0  0  0
   20.8662   26.6583   35.2735 C   0  0  0  0  0  0  0  0  0  0  0  0
   20.0612   27.3126   34.2912 N   0  0  0  0  0  0  0  0  0  0  0  0
   18.6254   27.5081   34.0117 C   0  0  0  0  0  0  0  0  0  0  0  0
   18.8209   28.3175   32.7740 C   0  0  0  0  0  0  0  0  0  0  0  0
   18.4063   29.6329   32.8942 F   0  0  0  0  0  0  0  0  0  0  0  0
   18.3899   27.6871   31.6191 F   0  0  0  0  0  0  0  0  0  0  0  0
   20.2688   28.1123   33.0684 C   0  0  0  0  0  0  0  0  0  0  0  0
   20.2646   25.9704   36.3318 C   0  0  0  0  0  0  0  0  0  0  0  0
   21.0681   25.3514   37.2902 C   0  0  0  0  0  0  0  0  0  0  0  0
   22.4221   25.4110   37.1862 N   0  0  0  0  0  0  0  0  0  0  0  0
   24.9753   25.9834   37.0426 H   0  0  0  0  0  0  0  0  0  0  0  0
   30.7580   28.6629   36.2441 H   0  0  0  0  0  0  0  0  0  0  0  0
   32.0983   29.2479   34.2470 H   0  0  0  0  0  0  0  0  0  0  0  0
   31.0669   28.9543   31.9901 H   0  0  0  0  0  0  0  0  0  0  0  0
   28.9258   27.8587   31.7656 H   0  0  0  0  0  0  0  0  0  0  0  0
   27.2969   26.3789   31.7552 H   0  0  0  0  0  0  0  0  0  0  0  0
   25.7670   27.1499   32.2661 H   0  0  0  0  0  0  0  0  0  0  0  0
   22.7280   27.2683   34.3867 H   0  0  0  0  0  0  0  0  0  0  0  0
   18.1237   26.5340   33.8176 H   0  0  0  0  0  0  0  0  0  0  0  0
   18.1370   28.0807   34.8313 H   0  0  0  0  0  0  0  0  0  0  0  0
   20.7892   27.5140   32.2878 H   0  0  0  0  0  0  0  0  0  0  0  0
   20.8024   29.0605   33.3015 H   0  0  0  0  0  0  0  0  0  0  0  0
   19.1865   25.9218   36.4176 H   0  0  0  0  0  0  0  0  0  0  0  0
   20.6152   24.8247   38.1194 H   0  0  0  0  0  0  0  0  0  0  0  0
  1  2  1  0
  2  3  2  0
  2  4  1  0
  4  5  2  0
  5  6  1  0
  6  7  2  0
  7  8  1  0
  8  9  2  0
  9 10  1  0
 10 11  2  0
 11 12  1  0
 12 13  2  0
 13 14  1  0
  1 15  1  0
 15 16  2  0
 16 17  1  0
 17 18  1  0
 18 19  1  0
 19 20  1  0
 20 21  1  0
 20 22  1  0
 20 23  1  0
 17 24  2  0
 24 25  1  0
 25 26  2  0
 13  4  1  0
 26 15  1  0
 12  7  1  0
 23 18  1  0
  1 27  1  0
  8 28  1  0
  9 29  1  0
 10 30  1  0
 11 31  1  0
 14 32  1  0
 14 33  1  0
 16 34  1  0
 19 35  1  0
 19 36  1  0
 23 37  1  0
 23 38  1  0
 24 39  1  0
 25 40  1  0
M  END
$$$$
confid_6
     RDKit          3D

 40 43  0  0  0  0  0  0  0  0999 V2000
   24.4800   26.1000   36.1300 N   0  0  0  0  0  0  0  0  0  0  0  0
   25.2500   26.2500   34.9900 C   0  0  0  0  0  0  0  0  0  0  0  0
   24.7400   25.7600   33.9900 O   0  0  0  0  0  0  0  0  0  0  0  0
   26.5900   26.8900   34.9600 C   0  0  0  0  0  0  0  0  0  0  0  0
   27.0600   27.2400   36.1600 N   0  0  0  0  0  0  0  0  0  0  0  0
   28.3000   27.7100   36.2400 N   0  0  0  0  0  0  0  0  0  0  0  0
   29.0500   27.9600   35.1500 C   0  0  0  0  0  0  0  0  0  0  0  0
   30.3400   28.4900   35.2600 C   0  0  0  0  0  0  0  0  0  0  0  0
   31.1100   28.8200   34.1400 C   0  0  0  0  0  0  0  0  0  0  0  0
   30.5200   28.6700   32.8800 C   0  0  0  0  0  0  0  0  0  0  0  0
   29.2900   28.0200   32.7700 C   0  0  0  0  0  0  0  0  0  0  0  0
   28.5200   27.7100   33.8900 C   0  0  0  0  0  0  0  0  0  0  0  0
   27.2700   27.0800   33.7600 C   0  0  0  0  0  0  0  0  0  0  0  0
   26.7500   26.8800   32.4900 N   0  0  0  0  0  0  0  0  0  0  0  0
   23.5435   25.0334   36.3691 C   0  0  0  0  0  0  0  0  0  0  0  0
   23.7281   23.7515   35.8204 C   0  0  0  0  0  0  0  0  0  0  0  0
   22.8053   22.7388   36.1057 C   0  0  0  0  0  0  0  0  0  0  0  0
   22.9763   21.4333   35.5510 N   0  0  0  0  0  0  0  0  0  0  0  0
   22.2808   20.1323   35.5894 C   0  0  0  0  0  0  0  0  0  0  0  0
   23.2390   19.4220   34.6935 C   0  0  0  0  0  0  0  0  0  0  0  0
   23.9621   18.4248   35.3256 F   0  0  0  0  0  0  0  0  0  0  0  0
   22.6951   19.0478   33.4765 F   0  0  0  0  0  0  0  0  0  0  0  0
   23.9319   20.7426   34.6635 C   0  0  0  0  0  0  0  0  0  0  0  0
   21.7200   23.0104   36.9443 C   0  0  0  0  0  0  0  0  0  0  0  0
   21.5801   24.2870   37.4905 C   0  0  0  0  0  0  0  0  0  0  0  0
   22.4870   25.2566   37.1987 N   0  0  0  0  0  0  0  0  0  0  0  0
   24.5548   26.8389   36.8650 H   0  0  0  0  0  0  0  0  0  0  0  0
   30.7582   28.6623   36.2441 H   0  0  0  0  0  0  0  0  0  0  0  0
   32.0994   29.2455   34.2469 H   0  0  0  0  0  0  0  0  0  0  0  0
   31.0716   28.9442   31.9898 H   0  0  0  0  0  0  0  0  0  0  0  0
   28.9437   27.8128   31.7669 H   0  0  0  0  0  0  0  0  0  0  0  0
   26.7157   27.6566   31.7925 H   0  0  0  0  0  0  0  0  0  0  0  0
   26.3616   25.9528   32.2111 H   0  0  0  0  0  0  0  0  0  0  0  0
   24.5867   23.5328   35.1990 H   0  0  0  0  0  0  0  0  0  0  0  0
   22.2676   19.7208   36.6231 H   0  0  0  0  0  0  0  0  0  0  0  0
   21.2605   20.2159   35.1533 H   0  0  0  0  0  0  0  0  0  0  0  0
   23.9384   21.2060   33.6519 H   0  0  0  0  0  0  0  0  0  0  0  0
   24.9455   20.7107   35.1216 H   0  0  0  0  0  0  0  0  0  0  0  0
   20.9964   22.2401   37.1790 H   0  0  0  0  0  0  0  0  0  0  0  0
   20.7508   24.5072   38.1493 H   0  0  0  0  0  0  0  0  0  0  0  0
  1  2  1  0
  2  3  2  0
  2  4  1  0
  4  5  2  0
  5  6  1  0
  6  7  2  0
  7  8  1  0
  8  9  2  0
  9 10  1  0
 10 11  2  0
 11 12  1  0
 12 13  2  0
 13 14  1  0
  1 15  1  0
 15 16  2  0
 16 17  1  0
 17 18  1  0
 18 19  1  0
 19 20  1  0
 20 21  1  0
 20 22  1  0
 20 23  1  0
 17 24  2  0
 24 25  1  0
 25 26  2  0
 13  4  1  0
 26 15  1  0
 12  7  1  0
 23 18  1  0
  1 27  1  0
  8 28  1  0
  9 29  1  0
 10 30  1  0
 11 31  1  0
 14 32  1  0
 14 33  1  0
 16 34  1  0
 19 35  1  0
 19 36  1  0
 23 37  1  0
 23 38  1  0
 24 39  1  0
 25 40  1  0
M  END
$$$$
confid_7
     RDKit          3D

 40 43  0  0  0  0  0  0  0  0999 V2000
   24.4800   26.1000   36.1300 N   0  0  0  0  0  0  0  0  0  0  0  0
   25.2500   26.2500   34.9900 C   0  0  0  0  0  0  0  0  0  0  0  0
   24.7400   25.7600   33.9900 O   0  0  0  0  0  0  0  0  0  0  0  0
   26.5900   26.8900   34.9600 C   0  0  0  0  0  0  0  0  0  0  0  0
   27.0600   27.2400   36.1600 N   0  0  0  0  0  0  0  0  0  0  0  0
   28.3000   27.7100   36.2400 N   0  0  0  0  0  0  0  0  0  0  0  0
   29.0500   27.9600   35.1500 C   0  0  0  0  0  0  0  0  0  0  0  0
   30.3400   28.4900   35.2600 C   0  0  0  0  0  0  0  0  0  0  0  0
   31.1100   28.8200   34.1400 C   0  0  0  0  0  0  0  0  0  0  0  0
   30.5200   28.6700   32.8800 C   0  0  0  0  0  0  0  0  0  0  0  0
   29.2900   28.0200   32.7700 C   0  0  0  0  0  0  0  0  0  0  0  0
   28.5200   27.7100   33.8900 C   0  0  0  0  0  0  0  0  0  0  0  0
   27.2700   27.0800   33.7600 C   0  0  0  0  0  0  0  0  0  0  0  0
   26.7500   26.8800   32.4900 N   0  0  0  0  0  0  0  0  0  0  0  0
   23.0419   26.0467   36.1581 C   0  0  0  0  0  0  0  0  0  0  0  0
   22.2589   26.6972   35.1872 C   0  0  0  0  0  0  0  0  0  0  0  0
   20.8633   26.6391   35.2731 C   0  0  0  0  0  0  0  0  0  0  0  0
   20.0549   27.2896   34.2910 N   0  0  0  0  0  0  0  0  0  0  0  0
   20.2585   28.0930   33.0698 C   0  0  0  0  0  0  0  0  0  0  0  0
   18.8095   28.2908   32.7755 C   0  0  0  0  0  0  0  0  0  0  0  0
   18.3878   29.6037   32.8983 F   0  0  0  0  0  0  0  0  0  0  0  0
   18.3821   27.6604   31.6194 F   0  0  0  0  0  0  0  0  0  0  0  0
   18.6181   27.4779   34.0116 C   0  0  0  0  0  0  0  0  0  0  0  0
   20.2652   25.9471   36.3307 C   0  0  0  0  0  0  0  0  0  0  0  0
   21.0719   25.3324   37.2892 C   0  0  0  0  0  0  0  0  0  0  0  0
   22.4256   25.3996   37.1856 N   0  0  0  0  0  0  0  0  0  0  0  0
   24.9754   25.9862   37.0428 H   0  0  0  0  0  0  0  0  0  0  0  0
   30.7582   28.6623   36.2441 H   0  0  0  0  0  0  0  0  0  0  0  0
   32.0994   29.2455   34.2469 H   0  0  0  0  0  0  0  0  0  0  0  0
   31.0715   28.9442   31.9898 H   0  0  0  0  0  0  0  0  0  0  0  0
   28.9437   27.8129   31.7669 H   0  0  0  0  0  0  0  0  0  0  0  0
   26.7152   27.6568   31.7928 H   0  0  0  0  0  0  0  0  0  0  0  0
   26.3611   25.9531   32.2111 H   0  0  0  0  0  0  0  0  0  0  0  0
   22.7221   27.2599   34.3871 H   0  0  0  0  0  0  0  0  0  0  0  0
   20.7825   27.4991   32.2882 H   0  0  0  0  0  0  0  0  0  0  0  0
   20.7866   29.0438   33.3050 H   0  0  0  0  0  0  0  0  0  0  0  0
   18.1265   28.0462   34.8322 H   0  0  0  0  0  0  0  0  0  0  0  0
   18.1218   26.5014   33.8156 H   0  0  0  0  0  0  0  0  0  0  0  0
   19.1874   25.8923   36.4160 H   0  0  0  0  0  0  0  0  0  0  0  0
   20.6218   24.8028   38.1181 H   0  0  0  0  0  0  0  0  0  0  0  0
  1  2  1  0
  2  3  2  0
  2  4  1  0
  4  5  2  0
  5  6  1  0
  6  7  2  0
  7  8  1  0
  8  9  2  0
  9 10  1  0
 10 11  2  0
 11 12  1  0
 12 13  2  0
 13 14  1  0
  1 15  1  0
 15 16  2  0
 16 17  1  0
 17 18  1  0
 18 19  1  0
 19 20  1  0
 20 21  1  0
 20 22  1  0
 20 23  1  0
 17 24  2  0
 24 25  1  0
 25 26  2  0
 13  4  1  0
 26 15  1  0
 12  7  1  0
 23 18  1  0
  1 27  1  0
  8 28  1  0
  9 29  1  0
 10 30  1  0
 11 31  1  0
 14 32  1  0
 14 33  1  0
 16 34  1  0
 19 35  1  0
 19 36  1  0
 23 37  1  0
 23 38  1  0
 24 39  1  0
 25 40  1  0
M  END
$$$$
confid_8
     RDKit          3D

 40 43  0  0  0  0  0  0  0  0999 V2000
   24.4800   26.1000   36.1300 N   0  0  0  0  0  0  0  0  0  0  0  0
   25.2500   26.2500   34.9900 C   0  0  0  0  0  0  0  0  0  0  0  0
   24.7400   25.7600   33.9900 O   0  0  0  0  0  0  0  0  0  0  0  0
   26.5900   26.8900   34.9600 C   0  0  0  0  0  0  0  0  0  0  0  0
   27.0600   27.2400   36.1600 N   0  0  0  0  0  0  0  0  0  0  0  0
   28.3000   27.7100   36.2400 N   0  0  0  0  0  0  0  0  0  0  0  0
   29.0500   27.9600   35.1500 C   0  0  0  0  0  0  0  0  0  0  0  0
   30.3400   28.4900   35.2600 C   0  0  0  0  0  0  0  0  0  0  0  0
   31.1100   28.8200   34.1400 C   0  0  0  0  0  0  0  0  0  0  0  0
   30.5200   28.6700   32.8800 C   0  0  0  0  0  0  0  0  0  0  0  0
   29.2900   28.0200   32.7700 C   0  0  0  0  0  0  0  0  0  0  0  0
   28.5200   27.7100   33.8900 C   0  0  0  0  0  0  0  0  0  0  0  0
   27.2700   27.0800   33.7600 C   0  0  0  0  0  0  0  0  0  0  0  0
   26.7500   26.8800   32.4900 N   0  0  0  0  0  0  0  0  0  0  0  0
   23.4842   25.0782   36.3379 C   0  0  0  0  0  0  0  0  0  0  0  0
   22.6269   25.1556   37.4453 C   0  0  0  0  0  0  0  0  0  0  0  0
   21.6761   24.1507   37.6568 C   0  0  0  0  0  0  0  0  0  0  0  0
   20.7933   24.2199   38.7780 N   0  0  0  0  0  0  0  0  0  0  0  0
   19.6962   23.4178   39.3532 C   0  0  0  0  0  0  0  0  0  0  0  0
   19.4326   24.3268   40.5063 C   0  0  0  0  0  0  0  0  0  0  0  0
   19.7376   23.7719   41.7375 F   0  0  0  0  0  0  0  0  0  0  0  0
   18.1998   24.9546   40.4535 F   0  0  0  0  0  0  0  0  0  0  0  0
   20.5430   25.1279   39.9142 C   0  0  0  0  0  0  0  0  0  0  0  0
   21.5973   23.0772   36.7641 C   0  0  0  0  0  0  0  0  0  0  0  0
   22.4714   23.0257   35.6773 C   0  0  0  0  0  0  0  0  0  0  0  0
   23.3868   24.0132   35.4918 N   0  0  0  0  0  0  0  0  0  0  0  0
   24.6534   26.7653   36.9173 H   0  0  0  0  0  0  0  0  0  0  0  0
   30.7580   28.6629   36.2441 H   0  0  0  0  0  0  0  0  0  0  0  0
   32.0983   29.2479   34.2470 H   0  0  0  0  0  0  0  0  0  0  0  0
   31.0669   28.9543   31.9901 H   0  0  0  0  0  0  0  0  0  0  0  0
   28.9258   27.8587   31.7656 H   0  0  0  0  0  0  0  0  0  0  0  0
   25.7673   27.1503   32.2658 H   0  0  0  0  0  0  0  0  0  0  0  0
   27.2969   26.3787   31.7554 H   0  0  0  0  0  0  0  0  0  0  0  0
   22.6973   25.9897   38.1326 H   0  0  0  0  0  0  0  0  0  0  0  0
   18.8392   23.3549   38.6463 H   0  0  0  0  0  0  0  0  0  0  0  0
   20.0616   22.4147   39.6669 H   0  0  0  0  0  0  0  0  0  0  0  0
   21.4350   25.1881   40.5767 H   0  0  0  0  0  0  0  0  0  0  0  0
   20.2125   26.1283   39.5560 H   0  0  0  0  0  0  0  0  0  0  0  0
   20.8694   22.2891   36.9100 H   0  0  0  0  0  0  0  0  0  0  0  0
   22.4239   22.1988   34.9814 H   0  0  0  0  0  0  0  0  0  0  0  0
  1  2  1  0
  2  3  2  0
  2  4  1  0
  4  5  2  0
  5  6  1  0
  6  7  2  0
  7  8  1  0
  8  9  2  0
  9 10  1  0
 10 11  2  0
 11 12  1  0
 12 13  2  0
 13 14  1  0
  1 15  1  0
 15 16  2  0
 16 17  1  0
 17 18  1  0
 18 19  1  0
 19 20  1  0
 20 21  1  0
 20 22  1  0
 20 23  1  0
 17 24  2  0
 24 25  1  0
 25 26  2  0
 13  4  1  0
 26 15  1  0
 12  7  1  0
 23 18  1  0
  1 27  1  0
  8 28  1  0
  9 29  1  0
 10 30  1  0
 11 31  1  0
 14 32  1  0
 14 33  1  0
 16 34  1  0
 19 35  1  0
 19 36  1  0
 23 37  1  0
 23 38  1  0
 24 39  1  0
 25 40  1  0
M  END
$$$$
confid_9
     RDKit          3D

 40 43  0  0  0  0  0  0  0  0999 V2000
   24.4800   26.1000   36.1300 N   0  0  0  0  0  0  0  0  0  0  0  0
   25.2500   26.2500   34.9900 C   0  0  0  0  0  0  0  0  0  0  0  0
   24.7400   25.7600   33.9900 O   0  0  0  0  0  0  0  0  0  0  0  0
   26.5900   26.8900   34.9600 C   0  0  0  0  0  0  0  0  0  0  0  0
   27.0600   27.2400   36.1600 N   0  0  0  0  0  0  0  0  0  0  0  0
   28.3000   27.7100   36.2400 N   0  0  0  0  0  0  0  0  0  0  0  0
   29.0500   27.9600   35.1500 C   0  0  0  0  0  0  0  0  0  0  0  0
   30.3400   28.4900   35.2600 C   0  0  0  0  0  0  0  0  0  0  0  0
   31.1100   28.8200   34.1400 C   0  0  0  0  0  0  0  0  0  0  0  0
   30.5200   28.6700   32.8800 C   0  0  0  0  0  0  0  0  0  0  0  0
   29.2900   28.0200   32.7700 C   0  0  0  0  0  0  0  0  0  0  0  0
   28.5200   27.7100   33.8900 C   0  0  0  0  0  0  0  0  0  0  0  0
   27.2700   27.0800   33.7600 C   0  0  0  0  0  0  0  0  0  0  0  0
   26.7500   26.8800   32.4900 N   0  0  0  0  0  0  0  0  0  0  0  0
   23.0445   25.9695   36.1489 C   0  0  0  0  0  0  0  0  0  0  0  0
   22.3908   25.6282   37.3420 C   0  0  0  0  0  0  0  0  0  0  0  0
   20.9953   25.5236   37.3616 C   0  0  0  0  0  0  0  0  0  0  0  0
   20.3171   25.1719   38.5688 N   0  0  0  0  0  0  0  0  0  0  0  0
   20.6722   24.8462   39.9638 C   0  0  0  0  0  0  0  0  0  0  0  0
   19.2718   24.6297   40.4298 C   0  0  0  0  0  0  0  0  0  0  0  0
   18.9951   23.3195   40.7812 F   0  0  0  0  0  0  0  0  0  0  0  0
   18.8357   25.5703   41.3474 F   0  0  0  0  0  0  0  0  0  0  0  0
   18.9269   24.9607   39.0168 C   0  0  0  0  0  0  0  0  0  0  0  0
   20.2691   25.7674   36.1916 C   0  0  0  0  0  0  0  0  0  0  0  0
   20.9499   26.1136   35.0235 C   0  0  0  0  0  0  0  0  0  0  0  0
   22.3058   26.2092   35.0280 N   0  0  0  0  0  0  0  0  0  0  0  0
   24.9693   26.1207   37.0532 H   0  0  0  0  0  0  0  0  0  0  0  0
   30.7580   28.6629   36.2441 H   0  0  0  0  0  0  0  0  0  0  0  0
   32.0983   29.2479   34.2470 H   0  0  0  0  0  0  0  0  0  0  0  0
   31.0669   28.9543   31.9901 H   0  0  0  0  0  0  0  0  0  0  0  0
   28.9258   27.8587   31.7656 H   0  0  0  0  0  0  0  0  0  0  0  0
   27.2969   26.3788   31.7553 H   0  0  0  0  0  0  0  0  0  0  0  0
   25.7672   27.1502   32.2659 H   0  0  0  0  0  0  0  0  0  0  0  0
   22.9618   25.4437   38.2436 H   0  0  0  0  0  0  0  0  0  0  0  0
   21.2917   23.9229   40.0092 H   0  0  0  0  0  0  0  0  0  0  0  0
   21.1649   25.7121   40.4593 H   0  0  0  0  0  0  0  0  0  0  0  0
   18.4611   24.1087   38.4734 H   0  0  0  0  0  0  0  0  0  0  0  0
   18.3344   25.8980   38.9235 H   0  0  0  0  0  0  0  0  0  0  0  0
   19.1891   25.6924   36.1855 H   0  0  0  0  0  0  0  0  0  0  0  0
   20.4002   26.3087   34.1125 H   0  0  0  0  0  0  0  0  0  0  0  0
  1  2  1  0
  2  3  2  0
  2  4  1  0
  4  5  2  0
  5  6  1  0
  6  7  2  0
  7  8  1  0
  8  9  2  0
  9 10  1  0
 10 11  2  0
 11 12  1  0
 12 13  2  0
 13 14  1  0
  1 15  1  0
 15 16  2  0
 16 17  1  0
 17 18  1  0
 18 19  1  0
 19 20  1  0
 20 21  1  0
 20 22  1  0
 20 23  1  0
 17 24  2  0
 24 25  1  0
 25 26  2  0
 13  4  1  0
 26 15  1  0
 12  7  1  0
 23 18  1  0
  1 27  1  0
  8 28  1  0
  9 29  1  0
 10 30  1  0
 11 31  1  0
 14 32  1  0
 14 33  1  0
 16 34  1  0
 19 35  1  0
 19 36  1  0
 23 37  1  0
 23 38  1  0
 24 39  1  0
 25 40  1  0
M  END
$$$$
confid_10
     RDKit          3D

 40 43  0  0  0  0  0  0  0  0999 V2000
   24.4800   26.1000   36.1300 N   0  0  0  0  0  0  0  0  0  0  0  0
   25.2500   26.2500   34.9900 C   0  0  0  0  0  0  0  0  0  0  0  0
   24.7400   25.7600   33.9900 O   0  0  0  0  0  0  0  0  0  0  0  0
   26.5900   26.8900   34.9600 C   0  0  0  0  0  0  0  0  0  0  0  0
   27.0600   27.2400   36.1600 N   0  0  0  0  0  0  0  0  0  0  0  0
   28.3000   27.7100   36.2400 N   0  0  0  0  0  0  0  0  0  0  0  0
   29.0500   27.9600   35.1500 C   0  0  0  0  0  0  0  0  0  0  0  0
   30.3400   28.4900   35.2600 C   0  0  0  0  0  0  0  0  0  0  0  0
   31.1100   28.8200   34.1400 C   0  0  0  0  0  0  0  0  0  0  0  0
   30.5200   28.6700   32.8800 C   0  0  0  0  0  0  0  0  0  0  0  0
   29.2900   28.0200   32.7700 C   0  0  0  0  0  0  0  0  0  0  0  0
   28.5200   27.7100   33.8900 C   0  0  0  0  0  0  0  0  0  0  0  0
   27.2700   27.0800   33.7600 C   0  0  0  0  0  0  0  0  0  0  0  0
   26.7500   26.8800   32.4900 N   0  0  0  0  0  0  0  0  0  0  0  0
   23.4842   25.0782   36.3379 C   0  0  0  0  0  0  0  0  0  0  0  0
   22.6269   25.1556   37.4453 C   0  0  0  0  0  0  0  0  0  0  0  0
   21.6761   24.1506   37.6568 C   0  0  0  0  0  0  0  0  0  0  0  0
   20.7934   24.2199   38.7780 N   0  0  0  0  0  0  0  0  0  0  0  0
   19.6962   23.4178   39.3533 C   0  0  0  0  0  0  0  0  0  0  0  0
   19.4327   24.3268   40.5063 C   0  0  0  0  0  0  0  0  0  0  0  0
   18.1998   24.9546   40.4536 F   0  0  0  0  0  0  0  0  0  0  0  0
   19.7377   23.7719   41.7375 F   0  0  0  0  0  0  0  0  0  0  0  0
   20.5430   25.1279   39.9142 C   0  0  0  0  0  0  0  0  0  0  0  0
   21.5973   23.0771   36.7641 C   0  0  0  0  0  0  0  0  0  0  0  0
   22.4714   23.0257   35.6773 C   0  0  0  0  0  0  0  0  0  0  0  0
   23.3868   24.0132   35.4918 N   0  0  0  0  0  0  0  0  0  0  0  0
   24.6534   26.7653   36.9173 H   0  0  0  0  0  0  0  0  0  0  0  0
   30.7580   28.6629   36.2441 H   0  0  0  0  0  0  0  0  0  0  0  0
   32.0983   29.2479   34.2470 H   0  0  0  0  0  0  0  0  0  0  0  0
   31.0669   28.9543   31.9901 H   0  0  0  0  0  0  0  0  0  0  0  0
   28.9258   27.8587   31.7656 H   0  0  0  0  0  0  0  0  0  0  0  0
   25.7673   27.1503   32.2658 H   0  0  0  0  0  0  0  0  0  0  0  0
   27.2969   26.3787   31.7554 H   0  0  0  0  0  0  0  0  0  0  0  0
   22.6973   25.9896   38.1326 H   0  0  0  0  0  0  0  0  0  0  0  0
   20.0617   22.4147   39.6669 H   0  0  0  0  0  0  0  0  0  0  0  0
   18.8392   23.3548   38.6463 H   0  0  0  0  0  0  0  0  0  0  0  0
   21.4350   25.1881   40.5767 H   0  0  0  0  0  0  0  0  0  0  0  0
   20.2126   26.1282   39.5561 H   0  0  0  0  0  0  0  0  0  0  0  0
   20.8694   22.2891   36.9100 H   0  0  0  0  0  0  0  0  0  0  0  0
   22.4239   22.1988   34.9814 H   0  0  0  0  0  0  0  0  0  0  0  0
  1  2  1  0
  2  3  2  0
  2  4  1  0
  4  5  2  0
  5  6  1  0
  6  7  2  0
  7  8  1  0
  8  9  2  0
  9 10  1  0
 10 11  2  0
 11 12  1  0
 12 13  2  0
 13 14  1  0
  1 15  1  0
 15 16  2  0
 16 17  1  0
 17 18  1  0
 18 19  1  0
 19 20  1  0
 20 21  1  0
 20 22  1  0
 20 23  1  0
 17 24  2  0
 24 25  1  0
 25 26  2  0
 13  4  1  0
 26 15  1  0
 12  7  1  0
 23 18  1  0
  1 27  1  0
  8 28  1  0
  9 29  1  0
 10 30  1  0
 11 31  1  0
 14 32  1  0
 14 33  1  0
 16 34  1  0
 19 35  1  0
 19 36  1  0
 23 37  1  0
 23 38  1  0
 24 39  1  0
 25 40  1  0
M  END
$$$$
