confid_0
     RDKit          3D

 45 48  0  0  0  0  0  0  0  0999 V2000
   25.3300   26.2600   34.7600 N   0  0  0  0  0  0  0  0  0  0  0  0
   26.1200   25.9200   33.6900 C   0  0  0  0  0  0  0  0  0  0  0  0
   25.6300   25.1100   32.9400 O   0  0  0  0  0  0  0  0  0  0  0  0
   27.5200   26.3800   33.4600 C   0  0  0  0  0  0  0  0  0  0  0  0
   28.1600   26.6300   34.6100 N   0  0  0  0  0  0  0  0  0  0  0  0
   29.4800   26.8500   34.5700 N   0  0  0  0  0  0  0  0  0  0  0  0
   30.1900   26.7800   33.4400 C   0  0  0  0  0  0  0  0  0  0  0  0
   31.5600   27.0500   33.5000 C   0  0  0  0  0  0  0  0  0  0  0  0
   32.2700   27.2400   32.3100 C   0  0  0  0  0  0  0  0  0  0  0  0
   31.6100   27.2500   31.0800 C   0  0  0  0  0  0  0  0  0  0  0  0
   30.2700   26.8700   31.0600 C   0  0  0  0  0  0  0  0  0  0  0  0
   29.5100   26.6900   32.2300 C   0  0  0  0  0  0  0  0  0  0  0  0
   28.1400   26.4100   32.2000 C   0  0  0  0  0  0  0  0  0  0  0  0
   27.4300   26.1300   31.0500 N   0  0  0  0  0  0  0  0  0  0  0  0
   23.9026   26.0571   34.8225 C   0  0  0  0  0  0  0  0  0  0  0  0
   23.1794   26.0570   33.6705 N   0  0  0  0  0  0  0  0  0  0  0  0
   21.8313   25.9314   33.6559 C   0  0  0  0  0  0  0  0  0  0  0  0
   21.1173   25.8500   34.8540 C   0  0  0  0  0  0  0  0  0  0  0  0
   19.6246   25.6613   34.8141 C   0  0  0  0  0  0  0  0  0  0  0  0
   18.9766   26.2754   36.0132 C   0  0  0  0  0  0  0  0  0  0  0  0
   17.7878   26.6883   35.9308 O   0  0  0  0  0  0  0  0  0  0  0  0
   19.6911   26.3548   37.2579 N   0  0  0  0  0  0  0  0  0  0  0  0
   19.0174   26.8879   38.4448 C   0  0  0  0  0  0  0  0  0  0  0  0
   21.0372   25.7768   37.3779 C   0  0  0  0  0  0  0  0  0  0  0  0
   21.8182   25.8682   36.0781 C   0  0  0  0  0  0  0  0  0  0  0  0
   23.2384   25.9068   36.0642 C   0  0  0  0  0  0  0  0  0  0  0  0
   24.0352   25.7954   37.3449 C   0  0  0  0  0  0  0  0  0  0  0  0
   25.7781   26.7899   35.5405 H   0  0  0  0  0  0  0  0  0  0  0  0
   32.0667   27.1429   34.4530 H   0  0  0  0  0  0  0  0  0  0  0  0
   33.3284   27.4627   32.3495 H   0  0  0  0  0  0  0  0  0  0  0  0
   32.1496   27.4414   30.1613 H   0  0  0  0  0  0  0  0  0  0  0  0
   29.7983   26.8254   30.0886 H   0  0  0  0  0  0  0  0  0  0  0  0
   27.8914   25.7241   30.2071 H   0  0  0  0  0  0  0  0  0  0  0  0
   26.4123   26.3491   30.9739 H   0  0  0  0  0  0  0  0  0  0  0  0
   21.3146   25.9098   32.7049 H   0  0  0  0  0  0  0  0  0  0  0  0
   19.3972   24.5746   34.7977 H   0  0  0  0  0  0  0  0  0  0  0  0
   19.2019   26.1244   33.8954 H   0  0  0  0  0  0  0  0  0  0  0  0
   18.7679   27.9576   38.2832 H   0  0  0  0  0  0  0  0  0  0  0  0
   19.6607   26.8080   39.3468 H   0  0  0  0  0  0  0  0  0  0  0  0
   18.0836   26.3178   38.6358 H   0  0  0  0  0  0  0  0  0  0  0  0
   21.5833   26.3177   38.1793 H   0  0  0  0  0  0  0  0  0  0  0  0
   20.9489   24.7088   37.6697 H   0  0  0  0  0  0  0  0  0  0  0  0
   24.1504   26.8001   37.8024 H   0  0  0  0  0  0  0  0  0  0  0  0
   25.0378   25.3559   37.1639 H   0  0  0  0  0  0  0  0  0  0  0  0
   23.5416   25.1122   38.0663 H   0  0  0  0  0  0  0  0  0  0  0  0
  1  2  1  0
  2  3  2  0
  2  4  1  0
  4  5  2  0
  5  6  1  0
  6  7  2  0
  7  8  1  0
  8  9  2  0
  9 10  1  0
 10 11  2  0
 11 12  1  0
 12 13  2  0
 13 14  1  0
  1 15  1  0
 15 16  2  0
 16 17  1  0
 17 18  2  0
 18 19  1  0
 19 20  1  0
 20 21  2  0
 20 22  1  0
 22 23  1  0
 22 24  1  0
 24 25  1  0
 25 26  2  0
 26 27  1  0
 13  4  1  0
 26 15  1  0
 12  7  1  0
 25 18  1  0
  1 28  1  0
  8 29  1  0
  9 30  1  0
 10 31  1  0
 11 32  1  0
 14 33  1  0
 14 34  1  0
 17 35  1  0
 19 36  1  0
 19 37  1  0
 23 38  1  0
 23 39  1  0
 23 40  1  0
 24 41  1  0
 24 42  1  0
 27 43  1  0
 27 44  1  0
 27 45  1  0
M  END
$$$$
confid_1
     RDKit          3D

 45 48  0  0  0  0  0  0  0  0999 V2000
   25.3300   26.2600   34.7600 N   0  0  0  0  0  0  0  0  0  0  0  0
   26.1200   25.9200   33.6900 C   0  0  0  0  0  0  0  0  0  0  0  0
   25.6300   25.1100   32.9400 O   0  0  0  0  0  0  0  0  0  0  0  0
   27.5200   26.3800   33.4600 C   0  0  0  0  0  0  0  0  0  0  0  0
   28.1600   26.6300   34.6100 N   0  0  0  0  0  0  0  0  0  0  0  0
   29.4800   26.8500   34.5700 N   0  0  0  0  0  0  0  0  0  0  0  0
   30.1900   26.7800   33.4400 C   0  0  0  0  0  0  0  0  0  0  0  0
   31.5600   27.0500   33.5000 C   0  0  0  0  0  0  0  0  0  0  0  0
   32.2700   27.2400   32.3100 C   0  0  0  0  0  0  0  0  0  0  0  0
   31.6100   27.2500   31.0800 C   0  0  0  0  0  0  0  0  0  0  0  0
   30.2700   26.8700   31.0600 C   0  0  0  0  0  0  0  0  0  0  0  0
   29.5100   26.6900   32.2300 C   0  0  0  0  0  0  0  0  0  0  0  0
   28.1400   26.4100   32.2000 C   0  0  0  0  0  0  0  0  0  0  0  0
   27.4300   26.1300   31.0500 N   0  0  0  0  0  0  0  0  0  0  0  0
   24.1837   25.5090   35.2125 C   0  0  0  0  0  0  0  0  0  0  0  0
   24.1513   24.1632   35.0181 N   0  0  0  0  0  0  0  0  0  0  0  0
   23.1383   23.3855   35.4682 C   0  0  0  0  0  0  0  0  0  0  0  0
   22.0962   23.9451   36.2115 C   0  0  0  0  0  0  0  0  0  0  0  0
   20.9555   23.0714   36.6598 C   0  0  0  0  0  0  0  0  0  0  0  0
   20.3635   23.5790   37.9352 C   0  0  0  0  0  0  0  0  0  0  0  0
   19.8031   22.7689   38.7228 O   0  0  0  0  0  0  0  0  0  0  0  0
   20.3980   24.9839   38.2376 N   0  0  0  0  0  0  0  0  0  0  0  0
   19.7453   25.4773   39.4530 C   0  0  0  0  0  0  0  0  0  0  0  0
   20.9575   25.9370   37.2686 C   0  0  0  0  0  0  0  0  0  0  0  0
   22.0939   25.3335   36.4611 C   0  0  0  0  0  0  0  0  0  0  0  0
   23.1183   26.1415   35.8985 C   0  0  0  0  0  0  0  0  0  0  0  0
   23.0843   27.6480   36.0276 C   0  0  0  0  0  0  0  0  0  0  0  0
   25.6261   27.0904   35.3204 H   0  0  0  0  0  0  0  0  0  0  0  0
   32.0668   27.1429   34.4530 H   0  0  0  0  0  0  0  0  0  0  0  0
   33.3284   27.4627   32.3495 H   0  0  0  0  0  0  0  0  0  0  0  0
   32.1496   27.4414   30.1613 H   0  0  0  0  0  0  0  0  0  0  0  0
   29.7983   26.8254   30.0886 H   0  0  0  0  0  0  0  0  0  0  0  0
   27.8914   25.7239   30.2072 H   0  0  0  0  0  0  0  0  0  0  0  0
   26.4124   26.3494   30.9737 H   0  0  0  0  0  0  0  0  0  0  0  0
   23.1554   22.3240   35.2570 H   0  0  0  0  0  0  0  0  0  0  0  0
   21.3067   22.0271   36.8125 H   0  0  0  0  0  0  0  0  0  0  0  0
   20.1711   23.0682   35.8739 H   0  0  0  0  0  0  0  0  0  0  0  0
   19.7785   26.5862   39.5098 H   0  0  0  0  0  0  0  0  0  0  0  0
   20.2580   25.0629   40.3463 H   0  0  0  0  0  0  0  0  0  0  0  0
   18.6800   25.1634   39.4625 H   0  0  0  0  0  0  0  0  0  0  0  0
   21.3255   26.8269   37.8217 H   0  0  0  0  0  0  0  0  0  0  0  0
   20.1545   26.2607   36.5729 H   0  0  0  0  0  0  0  0  0  0  0  0
   23.5658   27.9529   36.9800 H   0  0  0  0  0  0  0  0  0  0  0  0
   22.0432   28.0303   35.9976 H   0  0  0  0  0  0  0  0  0  0  0  0
   23.6013   28.1408   35.1786 H   0  0  0  0  0  0  0  0  0  0  0  0
  1  2  1  0
  2  3  2  0
  2  4  1  0
  4  5  2  0
  5  6  1  0
  6  7  2  0
  7  8  1  0
  8  9  2  0
  9 10  1  0
 10 11  2  0
 11 12  1  0
 12 13  2  0
 13 14  1  0
  1 15  1  0
 15 16  2  0
 16 17  1  0
 17 18  2  0
 18 19  1  0
 19 20  1  0
 20 21  2  0
 20 22  1  0
 22 23  1  0
 22 24  1  0
 24 25  1  0
 25 26  2  0
 26 27  1  0
 13  4  1  0
 26 15  1  0
 12  7  1  0
 25 18  1  0
  1 28  1  0
  8 29  1  0
  9 30  1  0
 10 31  1  0
 11 32  1  0
 14 33  1  0
 14 34  1  0
 17 35  1  0
 19 36  1  0
 19 37  1  0
 23 38  1  0
 23 39  1  0
 23 40  1  0
 24 41  1  0
 24 42  1  0
 27 43  1  0
 27 44  1  0
 27 45  1  0
M  END
$$$$
