confid_0
     RDKit          3D

 45 48  0  0  0  0  0  0  0  0999 V2000
   24.4800   26.1000   36.1300 N   0  0  0  0  0  0  0  0  0  0  0  0
   25.2500   26.2500   34.9900 C   0  0  0  0  0  0  0  0  0  0  0  0
   24.7400   25.7600   33.9900 O   0  0  0  0  0  0  0  0  0  0  0  0
   26.5900   26.8900   34.9600 C   0  0  0  0  0  0  0  0  0  0  0  0
   27.0600   27.2400   36.1600 N   0  0  0  0  0  0  0  0  0  0  0  0
   28.3000   27.7100   36.2400 N   0  0  0  0  0  0  0  0  0  0  0  0
   29.0500   27.9600   35.1500 C   0  0  0  0  0  0  0  0  0  0  0  0
   30.3400   28.4900   35.2600 C   0  0  0  0  0  0  0  0  0  0  0  0
   31.1100   28.8200   34.1400 C   0  0  0  0  0  0  0  0  0  0  0  0
   30.5200   28.6700   32.8800 C   0  0  0  0  0  0  0  0  0  0  0  0
   29.2900   28.0200   32.7700 C   0  0  0  0  0  0  0  0  0  0  0  0
   28.5200   27.7100   33.8900 C   0  0  0  0  0  0  0  0  0  0  0  0
   27.2700   27.0800   33.7600 C   0  0  0  0  0  0  0  0  0  0  0  0
   26.7500   26.8800   32.4900 N   0  0  0  0  0  0  0  0  0  0  0  0
   23.0555   25.8723   36.1356 C   0  0  0  0  0  0  0  0  0  0  0  0
   22.2196   26.5462   35.2183 C   0  0  0  0  0  0  0  0  0  0  0  0
   20.8513   26.3192   35.2921 C   0  0  0  0  0  0  0  0  0  0  0  0
   19.7528   26.8469   34.5236 C   0  0  0  0  0  0  0  0  0  0  0  0
   19.8454   27.6382   33.5475 O   0  0  0  0  0  0  0  0  0  0  0  0
   18.5260   26.3148   35.0219 N   0  0  0  0  0  0  0  0  0  0  0  0
   18.8243   25.3965   36.1267 C   0  0  0  0  0  0  0  0  0  0  0  0
   20.3180   25.4764   36.2325 C   0  0  0  0  0  0  0  0  0  0  0  0
   21.1063   24.8334   37.1279 N   0  0  0  0  0  0  0  0  0  0  0  0
   22.4625   25.0090   37.1034 C   0  0  0  0  0  0  0  0  0  0  0  0
   23.2980   24.2821   38.1139 C   0  0  0  0  0  0  0  0  0  0  0  0
   17.1986   26.5437   34.4566 C   0  0  0  0  0  0  0  0  0  0  0  0
   16.7304   27.9634   34.7533 C   0  0  0  0  0  0  0  0  0  0  0  0
   24.9647   26.1375   37.0543 H   0  0  0  0  0  0  0  0  0  0  0  0
   30.7581   28.6627   36.2440 H   0  0  0  0  0  0  0  0  0  0  0  0
   32.0984   29.2477   34.2471 H   0  0  0  0  0  0  0  0  0  0  0  0
   31.0669   28.9542   31.9901 H   0  0  0  0  0  0  0  0  0  0  0  0
   28.9258   27.8586   31.7656 H   0  0  0  0  0  0  0  0  0  0  0  0
   25.7671   27.1499   32.2660 H   0  0  0  0  0  0  0  0  0  0  0  0
   27.2968   26.3787   31.7553 H   0  0  0  0  0  0  0  0  0  0  0  0
   22.6201   27.2390   34.4891 H   0  0  0  0  0  0  0  0  0  0  0  0
   18.5076   24.3635   35.8693 H   0  0  0  0  0  0  0  0  0  0  0  0
   18.3429   25.7477   37.0638 H   0  0  0  0  0  0  0  0  0  0  0  0
   23.7091   25.0051   38.8489 H   0  0  0  0  0  0  0  0  0  0  0  0
   22.6852   23.5331   38.6598 H   0  0  0  0  0  0  0  0  0  0  0  0
   24.1315   23.7495   37.6090 H   0  0  0  0  0  0  0  0  0  0  0  0
   16.4738   25.8263   34.8993 H   0  0  0  0  0  0  0  0  0  0  0  0
   17.2260   26.3761   33.3586 H   0  0  0  0  0  0  0  0  0  0  0  0
   17.4050   28.7022   34.2714 H   0  0  0  0  0  0  0  0  0  0  0  0
   15.7036   28.1074   34.3561 H   0  0  0  0  0  0  0  0  0  0  0  0
   16.7190   28.1394   35.8501 H   0  0  0  0  0  0  0  0  0  0  0  0
  1  2  1  0
  2  3  2  0
  2  4  1  0
  4  5  2  0
  5  6  1  0
  6  7  2  0
  7  8  1  0
  8  9  2  0
  9 10  1  0
 10 11  2  0
 11 12  1  0
 12 13  2  0
 13 14  1  0
  1 15  1  0
 15 16  2  0
 16 17  1  0
 17 18  1  0
 18 19  2  0
 18 20  1  0
 20 21  1  0
 21 22  1  0
 22 23  1  0
 23 24  2  0
 24 25  1  0
 20 26  1  0
 26 27  1  0
 13  4  1  0
 24 15  1  0
 12  7  1  0
 22 17  2  0
  1 28  1  0
  8 29  1  0
  9 30  1  0
 10 31  1  0
 11 32  1  0
 14 33  1  0
 14 34  1  0
 16 35  1  0
 21 36  1  0
 21 37  1  0
 25 38  1  0
 25 39  1  0
 25 40  1  0
 26 41  1  0
 26 42  1  0
 27 43  1  0
 27 44  1  0
 27 45  1  0
M  END
$$$$
confid_1
     RDKit          3D

 45 48  0  0  0  0  0  0  0  0999 V2000
   24.4800   26.1000   36.1300 N   0  0  0  0  0  0  0  0  0  0  0  0
   25.2500   26.2500   34.9900 C   0  0  0  0  0  0  0  0  0  0  0  0
   24.7400   25.7600   33.9900 O   0  0  0  0  0  0  0  0  0  0  0  0
   26.5900   26.8900   34.9600 C   0  0  0  0  0  0  0  0  0  0  0  0
   27.0600   27.2400   36.1600 N   0  0  0  0  0  0  0  0  0  0  0  0
   28.3000   27.7100   36.2400 N   0  0  0  0  0  0  0  0  0  0  0  0
   29.0500   27.9600   35.1500 C   0  0  0  0  0  0  0  0  0  0  0  0
   30.3400   28.4900   35.2600 C   0  0  0  0  0  0  0  0  0  0  0  0
   31.1100   28.8200   34.1400 C   0  0  0  0  0  0  0  0  0  0  0  0
   30.5200   28.6700   32.8800 C   0  0  0  0  0  0  0  0  0  0  0  0
   29.2900   28.0200   32.7700 C   0  0  0  0  0  0  0  0  0  0  0  0
   28.5200   27.7100   33.8900 C   0  0  0  0  0  0  0  0  0  0  0  0
   27.2700   27.0800   33.7600 C   0  0  0  0  0  0  0  0  0  0  0  0
   26.7500   26.8800   32.4900 N   0  0  0  0  0  0  0  0  0  0  0  0
   23.4547   25.1000   36.3069 C   0  0  0  0  0  0  0  0  0  0  0  0
   23.6383   23.7908   35.8093 C   0  0  0  0  0  0  0  0  0  0  0  0
   22.6337   22.8588   36.0336 C   0  0  0  0  0  0  0  0  0  0  0  0
   22.5203   21.4707   35.6654 C   0  0  0  0  0  0  0  0  0  0  0  0
   23.3607   20.8116   34.9974 O   0  0  0  0  0  0  0  0  0  0  0  0
   21.2879   20.9478   36.1588 N   0  0  0  0  0  0  0  0  0  0  0  0
   20.5634   22.0207   36.8500 C   0  0  0  0  0  0  0  0  0  0  0  0
   21.4986   23.1869   36.7282 C   0  0  0  0  0  0  0  0  0  0  0  0
   21.3147   24.4347   37.2247 N   0  0  0  0  0  0  0  0  0  0  0  0
   22.2641   25.4007   37.0320 C   0  0  0  0  0  0  0  0  0  0  0  0
   22.0221   26.7672   37.5991 C   0  0  0  0  0  0  0  0  0  0  0  0
   20.7773   19.5979   35.9343 C   0  0  0  0  0  0  0  0  0  0  0  0
   21.5620   18.5878   36.7630 C   0  0  0  0  0  0  0  0  0  0  0  0
   24.6423   26.7719   36.9129 H   0  0  0  0  0  0  0  0  0  0  0  0
   30.7580   28.6629   36.2441 H   0  0  0  0  0  0  0  0  0  0  0  0
   32.0983   29.2479   34.2470 H   0  0  0  0  0  0  0  0  0  0  0  0
   31.0669   28.9542   31.9901 H   0  0  0  0  0  0  0  0  0  0  0  0
   28.9259   27.8586   31.7656 H   0  0  0  0  0  0  0  0  0  0  0  0
   25.7672   27.1502   32.2658 H   0  0  0  0  0  0  0  0  0  0  0  0
   27.2969   26.3787   31.7553 H   0  0  0  0  0  0  0  0  0  0  0  0
   24.5409   23.5043   35.2852 H   0  0  0  0  0  0  0  0  0  0  0  0
   20.4013   21.7548   37.9159 H   0  0  0  0  0  0  0  0  0  0  0  0
   19.6034   22.2364   36.3344 H   0  0  0  0  0  0  0  0  0  0  0  0
   22.1888   27.5393   36.8187 H   0  0  0  0  0  0  0  0  0  0  0  0
   22.7086   26.9456   38.4529 H   0  0  0  0  0  0  0  0  0  0  0  0
   20.9757   26.8586   37.9603 H   0  0  0  0  0  0  0  0  0  0  0  0
   19.7060   19.5482   36.2269 H   0  0  0  0  0  0  0  0  0  0  0  0
   20.8536   19.3448   34.8548 H   0  0  0  0  0  0  0  0  0  0  0  0
   21.4965   18.8491   37.8406 H   0  0  0  0  0  0  0  0  0  0  0  0
   21.1379   17.5726   36.6133 H   0  0  0  0  0  0  0  0  0  0  0  0
   22.6284   18.5775   36.4532 H   0  0  0  0  0  0  0  0  0  0  0  0
  1  2  1  0
  2  3  2  0
  2  4  1  0
  4  5  2  0
  5  6  1  0
  6  7  2  0
  7  8  1  0
  8  9  2  0
  9 10  1  0
 10 11  2  0
 11 12  1  0
 12 13  2  0
 13 14  1  0
  1 15  1  0
 15 16  2  0
 16 17  1  0
 17 18  1  0
 18 19  2  0
 18 20  1  0
 20 21  1  0
 21 22  1  0
 22 23  1  0
 23 24  2  0
 24 25  1  0
 20 26  1  0
 26 27  1  0
 13  4  1  0
 24 15  1  0
 12  7  1  0
 22 17  2  0
  1 28  1  0
  8 29  1  0
  9 30  1  0
 10 31  1  0
 11 32  1  0
 14 33  1  0
 14 34  1  0
 16 35  1  0
 21 36  1  0
 21 37  1  0
 25 38  1  0
 25 39  1  0
 25 40  1  0
 26 41  1  0
 26 42  1  0
 27 43  1  0
 27 44  1  0
 27 45  1  0
M  END
$$$$
confid_2
     RDKit          3D

 45 48  0  0  0  0  0  0  0  0999 V2000
   24.4800   26.1000   36.1300 N   0  0  0  0  0  0  0  0  0  0  0  0
   25.2500   26.2500   34.9900 C   0  0  0  0  0  0  0  0  0  0  0  0
   24.7400   25.7600   33.9900 O   0  0  0  0  0  0  0  0  0  0  0  0
   26.5900   26.8900   34.9600 C   0  0  0  0  0  0  0  0  0  0  0  0
   27.0600   27.2400   36.1600 N   0  0  0  0  0  0  0  0  0  0  0  0
   28.3000   27.7100   36.2400 N   0  0  0  0  0  0  0  0  0  0  0  0
   29.0500   27.9600   35.1500 C   0  0  0  0  0  0  0  0  0  0  0  0
   30.3400   28.4900   35.2600 C   0  0  0  0  0  0  0  0  0  0  0  0
   31.1100   28.8200   34.1400 C   0  0  0  0  0  0  0  0  0  0  0  0
   30.5200   28.6700   32.8800 C   0  0  0  0  0  0  0  0  0  0  0  0
   29.2900   28.0200   32.7700 C   0  0  0  0  0  0  0  0  0  0  0  0
   28.5200   27.7100   33.8900 C   0  0  0  0  0  0  0  0  0  0  0  0
   27.2700   27.0800   33.7600 C   0  0  0  0  0  0  0  0  0  0  0  0
   26.7500   26.8800   32.4900 N   0  0  0  0  0  0  0  0  0  0  0  0
   23.0577   25.8595   36.1355 C   0  0  0  0  0  0  0  0  0  0  0  0
   22.2159   26.5236   35.2160 C   0  0  0  0  0  0  0  0  0  0  0  0
   20.8504   26.2784   35.2847 C   0  0  0  0  0  0  0  0  0  0  0  0
   19.7472   26.7929   34.5136 C   0  0  0  0  0  0  0  0  0  0  0  0
   19.8272   27.6243   33.5705 O   0  0  0  0  0  0  0  0  0  0  0  0
   18.5284   26.2272   34.9938 N   0  0  0  0  0  0  0  0  0  0  0  0
   18.8316   25.3397   36.1222 C   0  0  0  0  0  0  0  0  0  0  0  0
   20.3250   25.4285   36.2234 C   0  0  0  0  0  0  0  0  0  0  0  0
   21.1186   24.7970   37.1225 N   0  0  0  0  0  0  0  0  0  0  0  0
   22.4727   24.9895   37.1022 C   0  0  0  0  0  0  0  0  0  0  0  0
   23.3143   24.2701   38.1127 C   0  0  0  0  0  0  0  0  0  0  0  0
   17.1878   26.5213   34.4936 C   0  0  0  0  0  0  0  0  0  0  0  0
   16.9762   25.8761   33.1292 C   0  0  0  0  0  0  0  0  0  0  0  0
   24.9640   26.1421   37.0542 H   0  0  0  0  0  0  0  0  0  0  0  0
   30.7580   28.6629   36.2441 H   0  0  0  0  0  0  0  0  0  0  0  0
   32.0983   29.2480   34.2471 H   0  0  0  0  0  0  0  0  0  0  0  0
   31.0668   28.9543   31.9901 H   0  0  0  0  0  0  0  0  0  0  0  0
   28.9258   27.8587   31.7655 H   0  0  0  0  0  0  0  0  0  0  0  0
   27.2968   26.3786   31.7553 H   0  0  0  0  0  0  0  0  0  0  0  0
   25.7672   27.1502   32.2661 H   0  0  0  0  0  0  0  0  0  0  0  0
   22.6103   27.2210   34.4881 H   0  0  0  0  0  0  0  0  0  0  0  0
   18.5134   24.3007   35.8938 H   0  0  0  0  0  0  0  0  0  0  0  0
   18.3542   25.7157   37.0519 H   0  0  0  0  0  0  0  0  0  0  0  0
   24.1517   23.7445   37.6075 H   0  0  0  0  0  0  0  0  0  0  0  0
   22.7078   23.5162   38.6587 H   0  0  0  0  0  0  0  0  0  0  0  0
   23.7191   24.9962   38.8480 H   0  0  0  0  0  0  0  0  0  0  0  0
   17.0493   27.6215   34.4192 H   0  0  0  0  0  0  0  0  0  0  0  0
   16.4280   26.1236   35.2014 H   0  0  0  0  0  0  0  0  0  0  0  0
   15.9376   26.0640   32.7836 H   0  0  0  0  0  0  0  0  0  0  0  0
   17.1394   24.7790   33.1997 H   0  0  0  0  0  0  0  0  0  0  0  0
   17.6830   26.3026   32.3862 H   0  0  0  0  0  0  0  0  0  0  0  0
  1  2  1  0
  2  3  2  0
  2  4  1  0
  4  5  2  0
  5  6  1  0
  6  7  2  0
  7  8  1  0
  8  9  2  0
  9 10  1  0
 10 11  2  0
 11 12  1  0
 12 13  2  0
 13 14  1  0
  1 15  1  0
 15 16  2  0
 16 17  1  0
 17 18  1  0
 18 19  2  0
 18 20  1  0
 20 21  1  0
 21 22  1  0
 22 23  1  0
 23 24  2  0
 24 25  1  0
 20 26  1  0
 26 27  1  0
 13  4  1  0
 24 15  1  0
 12  7  1  0
 22 17  2  0
  1 28  1  0
  8 29  1  0
  9 30  1  0
 10 31  1  0
 11 32  1  0
 14 33  1  0
 14 34  1  0
 16 35  1  0
 21 36  1  0
 21 37  1  0
 25 38  1  0
 25 39  1  0
 25 40  1  0
 26 41  1  0
 26 42  1  0
 27 43  1  0
 27 44  1  0
 27 45  1  0
M  END
$$$$
confid_3
     RDKit          3D

 45 48  0  0  0  0  0  0  0  0999 V2000
   24.4800   26.1000   36.1300 N   0  0  0  0  0  0  0  0  0  0  0  0
   25.2500   26.2500   34.9900 C   0  0  0  0  0  0  0  0  0  0  0  0
   24.7400   25.7600   33.9900 O   0  0  0  0  0  0  0  0  0  0  0  0
   26.5900   26.8900   34.9600 C   0  0  0  0  0  0  0  0  0  0  0  0
   27.0600   27.2400   36.1600 N   0  0  0  0  0  0  0  0  0  0  0  0
   28.3000   27.7100   36.2400 N   0  0  0  0  0  0  0  0  0  0  0  0
   29.0500   27.9600   35.1500 C   0  0  0  0  0  0  0  0  0  0  0  0
   30.3400   28.4900   35.2600 C   0  0  0  0  0  0  0  0  0  0  0  0
   31.1100   28.8200   34.1400 C   0  0  0  0  0  0  0  0  0  0  0  0
   30.5200   28.6700   32.8800 C   0  0  0  0  0  0  0  0  0  0  0  0
   29.2900   28.0200   32.7700 C   0  0  0  0  0  0  0  0  0  0  0  0
   28.5200   27.7100   33.8900 C   0  0  0  0  0  0  0  0  0  0  0  0
   27.2700   27.0800   33.7600 C   0  0  0  0  0  0  0  0  0  0  0  0
   26.7500   26.8800   32.4900 N   0  0  0  0  0  0  0  0  0  0  0  0
   23.3787   25.1780   36.2676 C   0  0  0  0  0  0  0  0  0  0  0  0
   23.4921   23.8542   35.7897 C   0  0  0  0  0  0  0  0  0  0  0  0
   22.4171   22.9958   35.9812 C   0  0  0  0  0  0  0  0  0  0  0  0
   22.2335   21.6070   35.6458 C   0  0  0  0  0  0  0  0  0  0  0  0
   23.0668   20.8734   35.0512 O   0  0  0  0  0  0  0  0  0  0  0  0
   20.9512   21.1755   36.0989 N   0  0  0  0  0  0  0  0  0  0  0  0
   20.2656   22.3100   36.7278 C   0  0  0  0  0  0  0  0  0  0  0  0
   21.2790   23.4107   36.6240 C   0  0  0  0  0  0  0  0  0  0  0  0
   21.1623   24.6738   37.1018 N   0  0  0  0  0  0  0  0  0  0  0  0
   22.1846   25.5687   36.9417 C   0  0  0  0  0  0  0  0  0  0  0  0
   22.0212   26.9522   37.4960 C   0  0  0  0  0  0  0  0  0  0  0  0
   20.3810   19.8418   35.9250 C   0  0  0  0  0  0  0  0  0  0  0  0
   21.0840   18.8396   36.8325 C   0  0  0  0  0  0  0  0  0  0  0  0
   24.6811   26.7335   36.9362 H   0  0  0  0  0  0  0  0  0  0  0  0
   30.7583   28.6620   36.2441 H   0  0  0  0  0  0  0  0  0  0  0  0
   32.0995   29.2451   34.2471 H   0  0  0  0  0  0  0  0  0  0  0  0
   31.0718   28.9439   31.9899 H   0  0  0  0  0  0  0  0  0  0  0  0
   28.9440   27.8127   31.7669 H   0  0  0  0  0  0  0  0  0  0  0  0
   26.3617   25.9528   32.2112 H   0  0  0  0  0  0  0  0  0  0  0  0
   26.7171   27.6560   31.7918 H   0  0  0  0  0  0  0  0  0  0  0  0
   24.3976   23.5000   35.3149 H   0  0  0  0  0  0  0  0  0  0  0  0
   19.3477   22.5708   36.1603 H   0  0  0  0  0  0  0  0  0  0  0  0
   20.0366   22.0816   37.7906 H   0  0  0  0  0  0  0  0  0  0  0  0
   20.9831   27.1058   37.8608 H   0  0  0  0  0  0  0  0  0  0  0  0
   22.2304   27.7060   36.7079 H   0  0  0  0  0  0  0  0  0  0  0  0
   22.7179   27.0997   38.3473 H   0  0  0  0  0  0  0  0  0  0  0  0
   19.2989   19.8607   36.1792 H   0  0  0  0  0  0  0  0  0  0  0  0
   20.4814   19.5276   34.8642 H   0  0  0  0  0  0  0  0  0  0  0  0
   22.1514   18.7351   36.5422 H   0  0  0  0  0  0  0  0  0  0  0  0
   21.0241   19.1744   37.8897 H   0  0  0  0  0  0  0  0  0  0  0  0
   20.5932   17.8476   36.7426 H   0  0  0  0  0  0  0  0  0  0  0  0
  1  2  1  0
  2  3  2  0
  2  4  1  0
  4  5  2  0
  5  6  1  0
  6  7  2  0
  7  8  1  0
  8  9  2  0
  9 10  1  0
 10 11  2  0
 11 12  1  0
 12 13  2  0
 13 14  1  0
  1 15  1  0
 15 16  2  0
 16 17  1  0
 17 18  1  0
 18 19  2  0
 18 20  1  0
 20 21  1  0
 21 22  1  0
 22 23  1  0
 23 24  2  0
 24 25  1  0
 20 26  1  0
 26 27  1  0
 13  4  1  0
 24 15  1  0
 12  7  1  0
 22 17  2  0
  1 28  1  0
  8 29  1  0
  9 30  1  0
 10 31  1  0
 11 32  1  0
 14 33  1  0
 14 34  1  0
 16 35  1  0
 21 36  1  0
 21 37  1  0
 25 38  1  0
 25 39  1  0
 25 40  1  0
 26 41  1  0
 26 42  1  0
 27 43  1  0
 27 44  1  0
 27 45  1  0
M  END
$$$$
confid_4
     RDKit          3D

 45 48  0  0  0  0  0  0  0  0999 V2000
   24.4800   26.1000   36.1300 N   0  0  0  0  0  0  0  0  0  0  0  0
   25.2500   26.2500   34.9900 C   0  0  0  0  0  0  0  0  0  0  0  0
   24.7400   25.7600   33.9900 O   0  0  0  0  0  0  0  0  0  0  0  0
   26.5900   26.8900   34.9600 C   0  0  0  0  0  0  0  0  0  0  0  0
   27.0600   27.2400   36.1600 N   0  0  0  0  0  0  0  0  0  0  0  0
   28.3000   27.7100   36.2400 N   0  0  0  0  0  0  0  0  0  0  0  0
   29.0500   27.9600   35.1500 C   0  0  0  0  0  0  0  0  0  0  0  0
   30.3400   28.4900   35.2600 C   0  0  0  0  0  0  0  0  0  0  0  0
   31.1100   28.8200   34.1400 C   0  0  0  0  0  0  0  0  0  0  0  0
   30.5200   28.6700   32.8800 C   0  0  0  0  0  0  0  0  0  0  0  0
   29.2900   28.0200   32.7700 C   0  0  0  0  0  0  0  0  0  0  0  0
   28.5200   27.7100   33.8900 C   0  0  0  0  0  0  0  0  0  0  0  0
   27.2700   27.0800   33.7600 C   0  0  0  0  0  0  0  0  0  0  0  0
   26.7500   26.8800   32.4900 N   0  0  0  0  0  0  0  0  0  0  0  0
   23.1219   25.6163   36.1491 C   0  0  0  0  0  0  0  0  0  0  0  0
   22.1717   26.1187   35.2355 C   0  0  0  0  0  0  0  0  0  0  0  0
   20.8754   25.6223   35.3002 C   0  0  0  0  0  0  0  0  0  0  0  0
   19.7044   25.9041   34.5096 C   0  0  0  0  0  0  0  0  0  0  0  0
   19.6382   26.7178   33.5505 O   0  0  0  0  0  0  0  0  0  0  0  0
   18.6166   25.1040   34.9690 N   0  0  0  0  0  0  0  0  0  0  0  0
   19.0741   24.3001   36.1092 C   0  0  0  0  0  0  0  0  0  0  0  0
   20.5162   24.6883   36.2374 C   0  0  0  0  0  0  0  0  0  0  0  0
   21.4140   24.2099   37.1328 N   0  0  0  0  0  0  0  0  0  0  0  0
   22.7091   24.6505   37.1120 C   0  0  0  0  0  0  0  0  0  0  0  0
   23.6692   24.1098   38.1285 C   0  0  0  0  0  0  0  0  0  0  0  0
   17.2395   25.1638   34.4844 C   0  0  0  0  0  0  0  0  0  0  0  0
   17.1453   24.6091   33.0685 C   0  0  0  0  0  0  0  0  0  0  0  0
   24.9279   26.2852   37.0550 H   0  0  0  0  0  0  0  0  0  0  0  0
   30.7579   28.6630   36.2440 H   0  0  0  0  0  0  0  0  0  0  0  0
   32.0985   29.2477   34.2473 H   0  0  0  0  0  0  0  0  0  0  0  0
   31.0665   28.9545   31.9901 H   0  0  0  0  0  0  0  0  0  0  0  0
   28.9257   27.8588   31.7657 H   0  0  0  0  0  0  0  0  0  0  0  0
   27.2974   26.3792   31.7553 H   0  0  0  0  0  0  0  0  0  0  0  0
   25.7670   27.1494   32.2660 H   0  0  0  0  0  0  0  0  0  0  0  0
   22.4339   26.8719   34.5031 H   0  0  0  0  0  0  0  0  0  0  0  0
   18.5158   24.5752   37.0283 H   0  0  0  0  0  0  0  0  0  0  0  0
   18.9767   23.2155   35.8845 H   0  0  0  0  0  0  0  0  0  0  0  0
   23.1995   23.2844   38.7070 H   0  0  0  0  0  0  0  0  0  0  0  0
   24.5769   23.7146   37.6247 H   0  0  0  0  0  0  0  0  0  0  0  0
   23.9562   24.9149   38.8361 H   0  0  0  0  0  0  0  0  0  0  0  0
   16.5820   24.5617   35.1477 H   0  0  0  0  0  0  0  0  0  0  0  0
   16.8829   26.2158   34.5066 H   0  0  0  0  0  0  0  0  0  0  0  0
   17.7227   25.2425   32.3635 H   0  0  0  0  0  0  0  0  0  0  0  0
   16.0829   24.5954   32.7436 H   0  0  0  0  0  0  0  0  0  0  0  0
   17.5433   23.5724   33.0366 H   0  0  0  0  0  0  0  0  0  0  0  0
  1  2  1  0
  2  3  2  0
  2  4  1  0
  4  5  2  0
  5  6  1  0
  6  7  2  0
  7  8  1  0
  8  9  2  0
  9 10  1  0
 10 11  2  0
 11 12  1  0
 12 13  2  0
 13 14  1  0
  1 15  1  0
 15 16  2  0
 16 17  1  0
 17 18  1  0
 18 19  2  0
 18 20  1  0
 20 21  1  0
 21 22  1  0
 22 23  1  0
 23 24  2  0
 24 25  1  0
 20 26  1  0
 26 27  1  0
 13  4  1  0
 24 15  1  0
 12  7  1  0
 22 17  2  0
  1 28  1  0
  8 29  1  0
  9 30  1  0
 10 31  1  0
 11 32  1  0
 14 33  1  0
 14 34  1  0
 16 35  1  0
 21 36  1  0
 21 37  1  0
 25 38  1  0
 25 39  1  0
 25 40  1  0
 26 41  1  0
 26 42  1  0
 27 43  1  0
 27 44  1  0
 27 45  1  0
M  END
$$$$
confid_5
     RDKit          3D

 45 48  0  0  0  0  0  0  0  0999 V2000
   24.4800   26.1000   36.1300 N   0  0  0  0  0  0  0  0  0  0  0  0
   25.2500   26.2500   34.9900 C   0  0  0  0  0  0  0  0  0  0  0  0
   24.7400   25.7600   33.9900 O   0  0  0  0  0  0  0  0  0  0  0  0
   26.5900   26.8900   34.9600 C   0  0  0  0  0  0  0  0  0  0  0  0
   27.0600   27.2400   36.1600 N   0  0  0  0  0  0  0  0  0  0  0  0
   28.3000   27.7100   36.2400 N   0  0  0  0  0  0  0  0  0  0  0  0
   29.0500   27.9600   35.1500 C   0  0  0  0  0  0  0  0  0  0  0  0
   30.3400   28.4900   35.2600 C   0  0  0  0  0  0  0  0  0  0  0  0
   31.1100   28.8200   34.1400 C   0  0  0  0  0  0  0  0  0  0  0  0
   30.5200   28.6700   32.8800 C   0  0  0  0  0  0  0  0  0  0  0  0
   29.2900   28.0200   32.7700 C   0  0  0  0  0  0  0  0  0  0  0  0
   28.5200   27.7100   33.8900 C   0  0  0  0  0  0  0  0  0  0  0  0
   27.2700   27.0800   33.7600 C   0  0  0  0  0  0  0  0  0  0  0  0
   26.7500   26.8800   32.4900 N   0  0  0  0  0  0  0  0  0  0  0  0
   23.2489   25.3498   36.2005 C   0  0  0  0  0  0  0  0  0  0  0  0
   22.1995   25.6051   35.2905 C   0  0  0  0  0  0  0  0  0  0  0  0
   21.0434   24.8415   35.3936 C   0  0  0  0  0  0  0  0  0  0  0  0
   19.8237   24.8467   34.6256 C   0  0  0  0  0  0  0  0  0  0  0  0
   19.5484   25.6347   33.6822 O   0  0  0  0  0  0  0  0  0  0  0  0
   18.9400   23.8442   35.1292 N   0  0  0  0  0  0  0  0  0  0  0  0
   19.5748   23.1948   36.2847 C   0  0  0  0  0  0  0  0  0  0  0  0
   20.9050   23.8856   36.3680 C   0  0  0  0  0  0  0  0  0  0  0  0
   21.8903   23.6555   37.2722 N   0  0  0  0  0  0  0  0  0  0  0  0
   23.0578   24.3684   37.2168 C   0  0  0  0  0  0  0  0  0  0  0  0
   24.1268   24.0839   38.2312 C   0  0  0  0  0  0  0  0  0  0  0  0
   17.5901   23.5616   34.6431 C   0  0  0  0  0  0  0  0  0  0  0  0
   17.6369   22.9651   33.2407 C   0  0  0  0  0  0  0  0  0  0  0  0
   24.8783   26.4330   37.0361 H   0  0  0  0  0  0  0  0  0  0  0  0
   30.7581   28.6635   36.2440 H   0  0  0  0  0  0  0  0  0  0  0  0
   32.0993   29.2459   34.2468 H   0  0  0  0  0  0  0  0  0  0  0  0
   31.0713   28.9443   31.9899 H   0  0  0  0  0  0  0  0  0  0  0  0
   28.9445   27.8127   31.7669 H   0  0  0  0  0  0  0  0  0  0  0  0
   26.7157   27.6565   31.7924 H   0  0  0  0  0  0  0  0  0  0  0  0
   26.3608   25.9530   32.2116 H   0  0  0  0  0  0  0  0  0  0  0  0
   22.2851   26.3690   34.5277 H   0  0  0  0  0  0  0  0  0  0  0  0
   19.7080   22.1078   36.0931 H   0  0  0  0  0  0  0  0  0  0  0  0
   18.9809   23.3742   37.2058 H   0  0  0  0  0  0  0  0  0  0  0  0
   23.8530   23.2020   38.8518 H   0  0  0  0  0  0  0  0  0  0  0  0
   25.0893   23.8738   37.7167 H   0  0  0  0  0  0  0  0  0  0  0  0
   24.2454   24.9622   38.9018 H   0  0  0  0  0  0  0  0  0  0  0  0
   16.9905   24.4985   34.6417 H   0  0  0  0  0  0  0  0  0  0  0  0
   17.0961   22.8314   35.3184 H   0  0  0  0  0  0  0  0  0  0  0  0
   18.1106   23.6745   32.5294 H   0  0  0  0  0  0  0  0  0  0  0  0
   18.2222   22.0185   33.2483 H   0  0  0  0  0  0  0  0  0  0  0  0
   16.6037   22.7507   32.8903 H   0  0  0  0  0  0  0  0  0  0  0  0
  1  2  1  0
  2  3  2  0
  2  4  1  0
  4  5  2  0
  5  6  1  0
  6  7  2  0
  7  8  1  0
  8  9  2  0
  9 10  1  0
 10 11  2  0
 11 12  1  0
 12 13  2  0
 13 14  1  0
  1 15  1  0
 15 16  2  0
 16 17  1  0
 17 18  1  0
 18 19  2  0
 18 20  1  0
 20 21  1  0
 21 22  1  0
 22 23  1  0
 23 24  2  0
 24 25  1  0
 20 26  1  0
 26 27  1  0
 13  4  1  0
 24 15  1  0
 12  7  1  0
 22 17  2  0
  1 28  1  0
  8 29  1  0
  9 30  1  0
 10 31  1  0
 11 32  1  0
 14 33  1  0
 14 34  1  0
 16 35  1  0
 21 36  1  0
 21 37  1  0
 25 38  1  0
 25 39  1  0
 25 40  1  0
 26 41  1  0
 26 42  1  0
 27 43  1  0
 27 44  1  0
 27 45  1  0
M  END
$$$$
confid_6
     RDKit          3D

 45 48  0  0  0  0  0  0  0  0999 V2000
   24.4800   26.1000   36.1300 N   0  0  0  0  0  0  0  0  0  0  0  0
   25.2500   26.2500   34.9900 C   0  0  0  0  0  0  0  0  0  0  0  0
   24.7400   25.7600   33.9900 O   0  0  0  0  0  0  0  0  0  0  0  0
   26.5900   26.8900   34.9600 C   0  0  0  0  0  0  0  0  0  0  0  0
   27.0600   27.2400   36.1600 N   0  0  0  0  0  0  0  0  0  0  0  0
   28.3000   27.7100   36.2400 N   0  0  0  0  0  0  0  0  0  0  0  0
   29.0500   27.9600   35.1500 C   0  0  0  0  0  0  0  0  0  0  0  0
   30.3400   28.4900   35.2600 C   0  0  0  0  0  0  0  0  0  0  0  0
   31.1100   28.8200   34.1400 C   0  0  0  0  0  0  0  0  0  0  0  0
   30.5200   28.6700   32.8800 C   0  0  0  0  0  0  0  0  0  0  0  0
   29.2900   28.0200   32.7700 C   0  0  0  0  0  0  0  0  0  0  0  0
   28.5200   27.7100   33.8900 C   0  0  0  0  0  0  0  0  0  0  0  0
   27.2700   27.0800   33.7600 C   0  0  0  0  0  0  0  0  0  0  0  0
   26.7500   26.8800   32.4900 N   0  0  0  0  0  0  0  0  0  0  0  0
   23.3828   25.1738   36.2677 C   0  0  0  0  0  0  0  0  0  0  0  0
   23.5009   23.8508   35.7894 C   0  0  0  0  0  0  0  0  0  0  0  0
   22.4272   22.9906   35.9767 C   0  0  0  0  0  0  0  0  0  0  0  0
   22.2402   21.6065   35.6234 C   0  0  0  0  0  0  0  0  0  0  0  0
   23.0820   20.8711   35.0419 O   0  0  0  0  0  0  0  0  0  0  0  0
   20.9464   21.1793   36.0464 N   0  0  0  0  0  0  0  0  0  0  0  0
   20.2737   22.3011   36.7114 C   0  0  0  0  0  0  0  0  0  0  0  0
   21.2862   23.4025   36.6150 C   0  0  0  0  0  0  0  0  0  0  0  0
   21.1649   24.6647   37.0932 N   0  0  0  0  0  0  0  0  0  0  0  0
   22.1852   25.5620   36.9364 C   0  0  0  0  0  0  0  0  0  0  0  0
   22.0142   26.9468   37.4842 C   0  0  0  0  0  0  0  0  0  0  0  0
   20.4120   19.8231   35.9425 C   0  0  0  0  0  0  0  0  0  0  0  0
   20.1010   19.4808   34.4907 C   0  0  0  0  0  0  0  0  0  0  0  0
   24.6741   26.7394   36.9329 H   0  0  0  0  0  0  0  0  0  0  0  0
   30.7583   28.6624   36.2440 H   0  0  0  0  0  0  0  0  0  0  0  0
   32.0993   29.2456   34.2470 H   0  0  0  0  0  0  0  0  0  0  0  0
   31.0715   28.9445   31.9899 H   0  0  0  0  0  0  0  0  0  0  0  0
   28.9437   27.8129   31.7669 H   0  0  0  0  0  0  0  0  0  0  0  0
   26.7150   27.6567   31.7926 H   0  0  0  0  0  0  0  0  0  0  0  0
   26.3625   25.9525   32.2110 H   0  0  0  0  0  0  0  0  0  0  0  0
   24.4048   23.5013   35.3074 H   0  0  0  0  0  0  0  0  0  0  0  0
   19.3442   22.5717   36.1679 H   0  0  0  0  0  0  0  0  0  0  0  0
   20.0662   22.0551   37.7741 H   0  0  0  0  0  0  0  0  0  0  0  0
   22.2607   27.6989   36.7051 H   0  0  0  0  0  0  0  0  0  0  0  0
   20.9642   27.1109   37.8070 H   0  0  0  0  0  0  0  0  0  0  0  0
   22.6805   27.0873   38.3614 H   0  0  0  0  0  0  0  0  0  0  0  0
   19.4773   19.7419   36.5378 H   0  0  0  0  0  0  0  0  0  0  0  0
   21.1479   19.0994   36.3539 H   0  0  0  0  0  0  0  0  0  0  0  0
   21.0299   19.4854   33.8840 H   0  0  0  0  0  0  0  0  0  0  0  0
   19.6465   18.4690   34.4362 H   0  0  0  0  0  0  0  0  0  0  0  0
   19.3855   20.2184   34.0698 H   0  0  0  0  0  0  0  0  0  0  0  0
  1  2  1  0
  2  3  2  0
  2  4  1  0
  4  5  2  0
  5  6  1  0
  6  7  2  0
  7  8  1  0
  8  9  2  0
  9 10  1  0
 10 11  2  0
 11 12  1  0
 12 13  2  0
 13 14  1  0
  1 15  1  0
 15 16  2  0
 16 17  1  0
 17 18  1  0
 18 19  2  0
 18 20  1  0
 20 21  1  0
 21 22  1  0
 22 23  1  0
 23 24  2  0
 24 25  1  0
 20 26  1  0
 26 27  1  0
 13  4  1  0
 24 15  1  0
 12  7  1  0
 22 17  2  0
  1 28  1  0
  8 29  1  0
  9 30  1  0
 10 31  1  0
 11 32  1  0
 14 33  1  0
 14 34  1  0
 16 35  1  0
 21 36  1  0
 21 37  1  0
 25 38  1  0
 25 39  1  0
 25 40  1  0
 26 41  1  0
 26 42  1  0
 27 43  1  0
 27 44  1  0
 27 45  1  0
M  END
$$$$
