confid_0
     RDKit          3D

 43 46  0  0  0  0  0  0  0  0999 V2000
   24.2000   26.2400   35.6900 N   0  0  0  0  0  0  0  0  0  0  0  0
   24.8500   26.2800   34.4800 C   0  0  0  0  0  0  0  0  0  0  0  0
   24.3100   25.7400   33.5400 O   0  0  0  0  0  0  0  0  0  0  0  0
   26.1800   26.9700   34.4700 C   0  0  0  0  0  0  0  0  0  0  0  0
   26.6500   27.6000   35.5500 N   0  0  0  0  0  0  0  0  0  0  0  0
   27.7900   28.2700   35.6200 N   0  0  0  0  0  0  0  0  0  0  0  0
   28.5400   28.3000   34.5100 C   0  0  0  0  0  0  0  0  0  0  0  0
   29.7700   28.9400   34.5600 C   0  0  0  0  0  0  0  0  0  0  0  0
   30.7000   28.8900   33.5000 C   0  0  0  0  0  0  0  0  0  0  0  0
   30.3700   28.1400   32.3700 C   0  0  0  0  0  0  0  0  0  0  0  0
   29.1200   27.5200   32.2800 C   0  0  0  0  0  0  0  0  0  0  0  0
   28.2100   27.6100   33.3300 C   0  0  0  0  0  0  0  0  0  0  0  0
   26.9700   26.9700   33.3100 C   0  0  0  0  0  0  0  0  0  0  0  0
   26.5300   26.2400   32.2200 N   0  0  0  0  0  0  0  0  0  0  0  0
   30.1460   29.6683   35.7368 N   0  0  0  0  0  0  0  0  0  0  0  0
   30.5634   28.9486   36.9439 C   0  0  0  0  0  0  0  0  0  0  0  0
   30.3111   29.8106   38.1828 C   0  0  0  0  0  0  0  0  0  0  0  0
   30.8452   31.2079   37.9943 C   0  0  0  0  0  0  0  0  0  0  0  0
   31.2325   31.9862   39.0971 C   0  0  0  0  0  0  0  0  0  0  0  0
   31.1899   31.4756   40.3538 F   0  0  0  0  0  0  0  0  0  0  0  0
   31.6595   33.3026   38.9079 C   0  0  0  0  0  0  0  0  0  0  0  0
   31.6866   33.8583   37.6265 C   0  0  0  0  0  0  0  0  0  0  0  0
   31.2812   33.0972   36.5135 C   0  0  0  0  0  0  0  0  0  0  0  0
   30.8596   31.7740   36.7059 C   0  0  0  0  0  0  0  0  0  0  0  0
   30.4520   31.0105   35.6081 O   0  0  0  0  0  0  0  0  0  0  0  0
   31.2840   33.6164   35.2096 O   0  0  0  0  0  0  0  0  0  0  0  0
   31.6870   34.9393   34.8708 C   0  0  0  0  0  0  0  0  0  0  0  0
   24.5989   26.6538   36.5617 H   0  0  0  0  0  0  0  0  0  0  0  0
   23.2681   25.7738   35.7694 H   0  0  0  0  0  0  0  0  0  0  0  0
   31.6585   29.3891   33.5695 H   0  0  0  0  0  0  0  0  0  0  0  0
   31.0714   28.0648   31.5491 H   0  0  0  0  0  0  0  0  0  0  0  0
   28.8856   26.9764   31.3746 H   0  0  0  0  0  0  0  0  0  0  0  0
   27.1524   25.5358   31.7656 H   0  0  0  0  0  0  0  0  0  0  0  0
   25.6756   26.5399   31.6999 H   0  0  0  0  0  0  0  0  0  0  0  0
   31.6479   28.7169   36.8681 H   0  0  0  0  0  0  0  0  0  0  0  0
   30.0118   27.9894   37.0456 H   0  0  0  0  0  0  0  0  0  0  0  0
   30.7905   29.3224   39.0587 H   0  0  0  0  0  0  0  0  0  0  0  0
   29.2175   29.8705   38.3711 H   0  0  0  0  0  0  0  0  0  0  0  0
   31.9635   33.8988   39.7588 H   0  0  0  0  0  0  0  0  0  0  0  0
   32.0188   34.8811   37.5129 H   0  0  0  0  0  0  0  0  0  0  0  0
   31.5886   35.0786   33.7748 H   0  0  0  0  0  0  0  0  0  0  0  0
   32.7483   35.0999   35.1558 H   0  0  0  0  0  0  0  0  0  0  0  0
   31.0369   35.6796   35.3831 H   0  0  0  0  0  0  0  0  0  0  0  0
  1  2  1  0
  2  3  2  0
  2  4  1  0
  4  5  2  0
  5  6  1  0
  6  7  2  0
  7  8  1  0
  8  9  2  0
  9 10  1  0
 10 11  2  0
 11 12  1  0
 12 13  2  0
 13 14  1  0
  8 15  1  0
 15 16  1  0
 16 17  1  0
 17 18  1  0
 18 19  2  0
 19 20  1  0
 19 21  1  0
 21 22  2  0
 22 23  1  0
 23 24  2  0
 24 25  1  0
 23 26  1  0
 26 27  1  0
 13  4  1  0
 25 15  1  0
 12  7  1  0
 24 18  1  0
  1 28  1  0
  1 29  1  0
  9 30  1  0
 10 31  1  0
 11 32  1  0
 14 33  1  0
 14 34  1  0
 16 35  1  0
 16 36  1  0
 17 37  1  0
 17 38  1  0
 21 39  1  0
 22 40  1  0
 27 41  1  0
 27 42  1  0
 27 43  1  0
M  END
$$$$
confid_1
     RDKit          3D

 43 46  0  0  0  0  0  0  0  0999 V2000
   24.2000   26.2400   35.6900 N   0  0  0  0  0  0  0  0  0  0  0  0
   24.8500   26.2800   34.4800 C   0  0  0  0  0  0  0  0  0  0  0  0
   24.3100   25.7400   33.5400 O   0  0  0  0  0  0  0  0  0  0  0  0
   26.1800   26.9700   34.4700 C   0  0  0  0  0  0  0  0  0  0  0  0
   26.6500   27.6000   35.5500 N   0  0  0  0  0  0  0  0  0  0  0  0
   27.7900   28.2700   35.6200 N   0  0  0  0  0  0  0  0  0  0  0  0
   28.5400   28.3000   34.5100 C   0  0  0  0  0  0  0  0  0  0  0  0
   29.7700   28.9400   34.5600 C   0  0  0  0  0  0  0  0  0  0  0  0
   30.7000   28.8900   33.5000 C   0  0  0  0  0  0  0  0  0  0  0  0
   30.3700   28.1400   32.3700 C   0  0  0  0  0  0  0  0  0  0  0  0
   29.1200   27.5200   32.2800 C   0  0  0  0  0  0  0  0  0  0  0  0
   28.2100   27.6100   33.3300 C   0  0  0  0  0  0  0  0  0  0  0  0
   26.9700   26.9700   33.3100 C   0  0  0  0  0  0  0  0  0  0  0  0
   26.5300   26.2400   32.2200 N   0  0  0  0  0  0  0  0  0  0  0  0
   30.1457   29.6718   35.7372 N   0  0  0  0  0  0  0  0  0  0  0  0
   29.4258   30.8944   36.1094 C   0  0  0  0  0  0  0  0  0  0  0  0
   29.5196   31.1199   37.6200 C   0  0  0  0  0  0  0  0  0  0  0  0
   30.9407   30.9853   38.1046 C   0  0  0  0  0  0  0  0  0  0  0  0
   31.3746   31.6541   39.2605 C   0  0  0  0  0  0  0  0  0  0  0  0
   30.5389   32.4841   39.9349 F   0  0  0  0  0  0  0  0  0  0  0  0
   32.6755   31.4626   39.7320 C   0  0  0  0  0  0  0  0  0  0  0  0
   33.5451   30.5928   39.0695 C   0  0  0  0  0  0  0  0  0  0  0  0
   33.1175   29.8990   37.9214 C   0  0  0  0  0  0  0  0  0  0  0  0
   31.8135   30.0987   37.4468 C   0  0  0  0  0  0  0  0  0  0  0  0
   31.3775   29.4119   36.3099 O   0  0  0  0  0  0  0  0  0  0  0  0
   33.9534   29.0094   37.2288 O   0  0  0  0  0  0  0  0  0  0  0  0
   35.2963   28.7138   37.5981 C   0  0  0  0  0  0  0  0  0  0  0  0
   24.5988   26.6539   36.5617 H   0  0  0  0  0  0  0  0  0  0  0  0
   23.2681   25.7737   35.7694 H   0  0  0  0  0  0  0  0  0  0  0  0
   31.6568   29.3927   33.5660 H   0  0  0  0  0  0  0  0  0  0  0  0
   31.0732   28.0610   31.5509 H   0  0  0  0  0  0  0  0  0  0  0  0
   28.8952   26.9546   31.3855 H   0  0  0  0  0  0  0  0  0  0  0  0
   26.3242   25.2204   32.3141 H   0  0  0  0  0  0  0  0  0  0  0  0
   26.6263   26.6231   31.2536 H   0  0  0  0  0  0  0  0  0  0  0  0
   28.3568   30.8363   35.8130 H   0  0  0  0  0  0  0  0  0  0  0  0
   29.8832   31.7566   35.5776 H   0  0  0  0  0  0  0  0  0  0  0  0
   28.8925   30.3658   38.1427 H   0  0  0  0  0  0  0  0  0  0  0  0
   29.1195   32.1301   37.8538 H   0  0  0  0  0  0  0  0  0  0  0  0
   33.0099   31.9839   40.6198 H   0  0  0  0  0  0  0  0  0  0  0  0
   34.5447   30.4629   39.4609 H   0  0  0  0  0  0  0  0  0  0  0  0
   35.9126   29.6371   37.5680 H   0  0  0  0  0  0  0  0  0  0  0  0
   35.7173   27.9821   36.8785 H   0  0  0  0  0  0  0  0  0  0  0  0
   35.3234   28.2684   38.6150 H   0  0  0  0  0  0  0  0  0  0  0  0
  1  2  1  0
  2  3  2  0
  2  4  1  0
  4  5  2  0
  5  6  1  0
  6  7  2  0
  7  8  1  0
  8  9  2  0
  9 10  1  0
 10 11  2  0
 11 12  1  0
 12 13  2  0
 13 14  1  0
  8 15  1  0
 15 16  1  0
 16 17  1  0
 17 18  1  0
 18 19  2  0
 19 20  1  0
 19 21  1  0
 21 22  2  0
 22 23  1  0
 23 24  2  0
 24 25  1  0
 23 26  1  0
 26 27  1  0
 13  4  1  0
 25 15  1  0
 12  7  1  0
 24 18  1  0
  1 28  1  0
  1 29  1  0
  9 30  1  0
 10 31  1  0
 11 32  1  0
 14 33  1  0
 14 34  1  0
 16 35  1  0
 16 36  1  0
 17 37  1  0
 17 38  1  0
 21 39  1  0
 22 40  1  0
 27 41  1  0
 27 42  1  0
 27 43  1  0
M  END
$$$$
confid_2
     RDKit          3D

 43 46  0  0  0  0  0  0  0  0999 V2000
   24.2000   26.2400   35.6900 N   0  0  0  0  0  0  0  0  0  0  0  0
   24.8500   26.2800   34.4800 C   0  0  0  0  0  0  0  0  0  0  0  0
   24.3100   25.7400   33.5400 O   0  0  0  0  0  0  0  0  0  0  0  0
   26.1800   26.9700   34.4700 C   0  0  0  0  0  0  0  0  0  0  0  0
   26.6500   27.6000   35.5500 N   0  0  0  0  0  0  0  0  0  0  0  0
   27.7900   28.2700   35.6200 N   0  0  0  0  0  0  0  0  0  0  0  0
   28.5400   28.3000   34.5100 C   0  0  0  0  0  0  0  0  0  0  0  0
   29.7700   28.9400   34.5600 C   0  0  0  0  0  0  0  0  0  0  0  0
   30.7000   28.8900   33.5000 C   0  0  0  0  0  0  0  0  0  0  0  0
   30.3700   28.1400   32.3700 C   0  0  0  0  0  0  0  0  0  0  0  0
   29.1200   27.5200   32.2800 C   0  0  0  0  0  0  0  0  0  0  0  0
   28.2100   27.6100   33.3300 C   0  0  0  0  0  0  0  0  0  0  0  0
   26.9700   26.9700   33.3100 C   0  0  0  0  0  0  0  0  0  0  0  0
   26.5300   26.2400   32.2200 N   0  0  0  0  0  0  0  0  0  0  0  0
   30.1588   29.6882   35.7273 N   0  0  0  0  0  0  0  0  0  0  0  0
   29.2703   30.6860   36.3377 C   0  0  0  0  0  0  0  0  0  0  0  0
   30.0770   31.8983   36.8084 C   0  0  0  0  0  0  0  0  0  0  0  0
   31.2797   31.4727   37.6097 C   0  0  0  0  0  0  0  0  0  0  0  0
   31.8228   32.3075   38.5996 C   0  0  0  0  0  0  0  0  0  0  0  0
   31.2354   33.4922   38.9052 F   0  0  0  0  0  0  0  0  0  0  0  0
   32.9848   31.9260   39.2744 C   0  0  0  0  0  0  0  0  0  0  0  0
   33.6236   30.7251   38.9557 C   0  0  0  0  0  0  0  0  0  0  0  0
   33.1022   29.8883   37.9505 C   0  0  0  0  0  0  0  0  0  0  0  0
   31.9300   30.2696   37.2826 C   0  0  0  0  0  0  0  0  0  0  0  0
   31.4047   29.4497   36.2800 O   0  0  0  0  0  0  0  0  0  0  0  0
   33.7150   28.6781   37.5903 O   0  0  0  0  0  0  0  0  0  0  0  0
   34.9054   28.1707   38.1841 C   0  0  0  0  0  0  0  0  0  0  0  0
   24.5988   26.6539   36.5617 H   0  0  0  0  0  0  0  0  0  0  0  0
   23.2681   25.7737   35.7694 H   0  0  0  0  0  0  0  0  0  0  0  0
   31.6554   29.3959   33.5630 H   0  0  0  0  0  0  0  0  0  0  0  0
   31.0705   28.0666   31.5481 H   0  0  0  0  0  0  0  0  0  0  0  0
   28.8854   26.9769   31.3744 H   0  0  0  0  0  0  0  0  0  0  0  0
   25.6756   26.5399   31.6999 H   0  0  0  0  0  0  0  0  0  0  0  0
   27.1525   25.5358   31.7655 H   0  0  0  0  0  0  0  0  0  0  0  0
   28.5025   31.0241   35.6076 H   0  0  0  0  0  0  0  0  0  0  0  0
   28.7556   30.2298   37.2107 H   0  0  0  0  0  0  0  0  0  0  0  0
   29.4133   32.5538   37.4127 H   0  0  0  0  0  0  0  0  0  0  0  0
   30.4250   32.4739   35.9237 H   0  0  0  0  0  0  0  0  0  0  0  0
   33.3988   32.5679   40.0415 H   0  0  0  0  0  0  0  0  0  0  0  0
   34.5243   30.4597   39.4921 H   0  0  0  0  0  0  0  0  0  0  0  0
   35.1631   27.2021   37.7089 H   0  0  0  0  0  0  0  0  0  0  0  0
   35.7446   28.8800   38.0234 H   0  0  0  0  0  0  0  0  0  0  0  0
   34.7487   28.0032   39.2706 H   0  0  0  0  0  0  0  0  0  0  0  0
  1  2  1  0
  2  3  2  0
  2  4  1  0
  4  5  2  0
  5  6  1  0
  6  7  2  0
  7  8  1  0
  8  9  2  0
  9 10  1  0
 10 11  2  0
 11 12  1  0
 12 13  2  0
 13 14  1  0
  8 15  1  0
 15 16  1  0
 16 17  1  0
 17 18  1  0
 18 19  2  0
 19 20  1  0
 19 21  1  0
 21 22  2  0
 22 23  1  0
 23 24  2  0
 24 25  1  0
 23 26  1  0
 26 27  1  0
 13  4  1  0
 25 15  1  0
 12  7  1  0
 24 18  1  0
  1 28  1  0
  1 29  1  0
  9 30  1  0
 10 31  1  0
 11 32  1  0
 14 33  1  0
 14 34  1  0
 16 35  1  0
 16 36  1  0
 17 37  1  0
 17 38  1  0
 21 39  1  0
 22 40  1  0
 27 41  1  0
 27 42  1  0
 27 43  1  0
M  END
$$$$
confid_3
     RDKit          3D

 43 46  0  0  0  0  0  0  0  0999 V2000
   24.2000   26.2400   35.6900 N   0  0  0  0  0  0  0  0  0  0  0  0
   24.8500   26.2800   34.4800 C   0  0  0  0  0  0  0  0  0  0  0  0
   24.3100   25.7400   33.5400 O   0  0  0  0  0  0  0  0  0  0  0  0
   26.1800   26.9700   34.4700 C   0  0  0  0  0  0  0  0  0  0  0  0
   26.6500   27.6000   35.5500 N   0  0  0  0  0  0  0  0  0  0  0  0
   27.7900   28.2700   35.6200 N   0  0  0  0  0  0  0  0  0  0  0  0
   28.5400   28.3000   34.5100 C   0  0  0  0  0  0  0  0  0  0  0  0
   29.7700   28.9400   34.5600 C   0  0  0  0  0  0  0  0  0  0  0  0
   30.7000   28.8900   33.5000 C   0  0  0  0  0  0  0  0  0  0  0  0
   30.3700   28.1400   32.3700 C   0  0  0  0  0  0  0  0  0  0  0  0
   29.1200   27.5200   32.2800 C   0  0  0  0  0  0  0  0  0  0  0  0
   28.2100   27.6100   33.3300 C   0  0  0  0  0  0  0  0  0  0  0  0
   26.9700   26.9700   33.3100 C   0  0  0  0  0  0  0  0  0  0  0  0
   26.5300   26.2400   32.2200 N   0  0  0  0  0  0  0  0  0  0  0  0
   30.1633   29.6809   35.7285 N   0  0  0  0  0  0  0  0  0  0  0  0
   30.2008   29.0616   37.0592 C   0  0  0  0  0  0  0  0  0  0  0  0
   31.4217   29.5540   37.8397 C   0  0  0  0  0  0  0  0  0  0  0  0
   31.5364   31.0551   37.7788 C   0  0  0  0  0  0  0  0  0  0  0  0
   32.1531   31.7767   38.8136 C   0  0  0  0  0  0  0  0  0  0  0  0
   32.6016   31.1441   39.9274 F   0  0  0  0  0  0  0  0  0  0  0  0
   32.3190   33.1589   38.6985 C   0  0  0  0  0  0  0  0  0  0  0  0
   31.8924   33.8273   37.5481 C   0  0  0  0  0  0  0  0  0  0  0  0
   31.2918   33.1134   36.4935 C   0  0  0  0  0  0  0  0  0  0  0  0
   31.1176   31.7278   36.6172 C   0  0  0  0  0  0  0  0  0  0  0  0
   30.5265   31.0070   35.5758 O   0  0  0  0  0  0  0  0  0  0  0  0
   30.8567   33.7409   35.3159 O   0  0  0  0  0  0  0  0  0  0  0  0
   30.9711   35.1365   35.0581 C   0  0  0  0  0  0  0  0  0  0  0  0
   23.2681   25.7738   35.7694 H   0  0  0  0  0  0  0  0  0  0  0  0
   24.5989   26.6538   36.5617 H   0  0  0  0  0  0  0  0  0  0  0  0
   31.6588   29.3890   33.5681 H   0  0  0  0  0  0  0  0  0  0  0  0
   31.0714   28.0649   31.5490 H   0  0  0  0  0  0  0  0  0  0  0  0
   28.8856   26.9765   31.3746 H   0  0  0  0  0  0  0  0  0  0  0  0
   27.1524   25.5358   31.7656 H   0  0  0  0  0  0  0  0  0  0  0  0
   25.6756   26.5399   31.6999 H   0  0  0  0  0  0  0  0  0  0  0  0
   30.2484   27.9538   36.9731 H   0  0  0  0  0  0  0  0  0  0  0  0
   29.2782   29.3366   37.6146 H   0  0  0  0  0  0  0  0  0  0  0  0
   31.3336   29.2082   38.8923 H   0  0  0  0  0  0  0  0  0  0  0  0
   32.3412   29.1093   37.4018 H   0  0  0  0  0  0  0  0  0  0  0  0
   32.7892   33.7146   39.4997 H   0  0  0  0  0  0  0  0  0  0  0  0
   32.0393   34.8968   37.4864 H   0  0  0  0  0  0  0  0  0  0  0  0
   30.5492   35.3556   34.0559 H   0  0  0  0  0  0  0  0  0  0  0  0
   32.0391   35.4404   35.0686 H   0  0  0  0  0  0  0  0  0  0  0  0
   30.4016   35.7129   35.8174 H   0  0  0  0  0  0  0  0  0  0  0  0
  1  2  1  0
  2  3  2  0
  2  4  1  0
  4  5  2  0
  5  6  1  0
  6  7  2  0
  7  8  1  0
  8  9  2  0
  9 10  1  0
 10 11  2  0
 11 12  1  0
 12 13  2  0
 13 14  1  0
  8 15  1  0
 15 16  1  0
 16 17  1  0
 17 18  1  0
 18 19  2  0
 19 20  1  0
 19 21  1  0
 21 22  2  0
 22 23  1  0
 23 24  2  0
 24 25  1  0
 23 26  1  0
 26 27  1  0
 13  4  1  0
 25 15  1  0
 12  7  1  0
 24 18  1  0
  1 28  1  0
  1 29  1  0
  9 30  1  0
 10 31  1  0
 11 32  1  0
 14 33  1  0
 14 34  1  0
 16 35  1  0
 16 36  1  0
 17 37  1  0
 17 38  1  0
 21 39  1  0
 22 40  1  0
 27 41  1  0
 27 42  1  0
 27 43  1  0
M  END
$$$$
confid_4
     RDKit          3D

 43 46  0  0  0  0  0  0  0  0999 V2000
   24.2000   26.2400   35.6900 N   0  0  0  0  0  0  0  0  0  0  0  0
   24.8500   26.2800   34.4800 C   0  0  0  0  0  0  0  0  0  0  0  0
   24.3100   25.7400   33.5400 O   0  0  0  0  0  0  0  0  0  0  0  0
   26.1800   26.9700   34.4700 C   0  0  0  0  0  0  0  0  0  0  0  0
   26.6500   27.6000   35.5500 N   0  0  0  0  0  0  0  0  0  0  0  0
   27.7900   28.2700   35.6200 N   0  0  0  0  0  0  0  0  0  0  0  0
   28.5400   28.3000   34.5100 C   0  0  0  0  0  0  0  0  0  0  0  0
   29.7700   28.9400   34.5600 C   0  0  0  0  0  0  0  0  0  0  0  0
   30.7000   28.8900   33.5000 C   0  0  0  0  0  0  0  0  0  0  0  0
   30.3700   28.1400   32.3700 C   0  0  0  0  0  0  0  0  0  0  0  0
   29.1200   27.5200   32.2800 C   0  0  0  0  0  0  0  0  0  0  0  0
   28.2100   27.6100   33.3300 C   0  0  0  0  0  0  0  0  0  0  0  0
   26.9700   26.9700   33.3100 C   0  0  0  0  0  0  0  0  0  0  0  0
   26.5300   26.2400   32.2200 N   0  0  0  0  0  0  0  0  0  0  0  0
   30.1184   29.6956   35.7383 N   0  0  0  0  0  0  0  0  0  0  0  0
   31.4899   29.7018   36.2630 C   0  0  0  0  0  0  0  0  0  0  0  0
   31.4786   29.8748   37.7838 C   0  0  0  0  0  0  0  0  0  0  0  0
   30.5798   31.0097   38.1992 C   0  0  0  0  0  0  0  0  0  0  0  0
   30.8116   31.7165   39.3903 C   0  0  0  0  0  0  0  0  0  0  0  0
   31.8926   31.4374   40.1619 F   0  0  0  0  0  0  0  0  0  0  0  0
   29.9198   32.7119   39.7967 C   0  0  0  0  0  0  0  0  0  0  0  0
   28.7841   32.9956   39.0341 C   0  0  0  0  0  0  0  0  0  0  0  0
   28.5279   32.2801   37.8488 C   0  0  0  0  0  0  0  0  0  0  0  0
   29.4306   31.2889   37.4390 C   0  0  0  0  0  0  0  0  0  0  0  0
   29.1850   30.5716   36.2652 O   0  0  0  0  0  0  0  0  0  0  0  0
   27.3955   32.5236   37.0564 O   0  0  0  0  0  0  0  0  0  0  0  0
   26.3985   33.4955   37.3540 C   0  0  0  0  0  0  0  0  0  0  0  0
   23.2682   25.7736   35.7694 H   0  0  0  0  0  0  0  0  0  0  0  0
   24.5987   26.6541   36.5616 H   0  0  0  0  0  0  0  0  0  0  0  0
   31.6520   29.4024   33.5499 H   0  0  0  0  0  0  0  0  0  0  0  0
   31.0715   28.0640   31.5492 H   0  0  0  0  0  0  0  0  0  0  0  0
   28.8948   26.9554   31.3851 H   0  0  0  0  0  0  0  0  0  0  0  0
   26.6262   26.6232   31.2536 H   0  0  0  0  0  0  0  0  0  0  0  0
   26.3242   25.2204   32.3141 H   0  0  0  0  0  0  0  0  0  0  0  0
   32.0043   28.7473   36.0162 H   0  0  0  0  0  0  0  0  0  0  0  0
   32.0530   30.5403   35.7990 H   0  0  0  0  0  0  0  0  0  0  0  0
   32.5202   30.0523   38.1285 H   0  0  0  0  0  0  0  0  0  0  0  0
   31.1093   28.9392   38.2565 H   0  0  0  0  0  0  0  0  0  0  0  0
   30.1033   33.2599   40.7121 H   0  0  0  0  0  0  0  0  0  0  0  0
   28.1097   33.7680   39.3774 H   0  0  0  0  0  0  0  0  0  0  0  0
   25.6216   33.4717   36.5627 H   0  0  0  0  0  0  0  0  0  0  0  0
   25.9199   33.2651   38.3293 H   0  0  0  0  0  0  0  0  0  0  0  0
   26.8496   34.5099   37.3791 H   0  0  0  0  0  0  0  0  0  0  0  0
  1  2  1  0
  2  3  2  0
  2  4  1  0
  4  5  2  0
  5  6  1  0
  6  7  2  0
  7  8  1  0
  8  9  2  0
  9 10  1  0
 10 11  2  0
 11 12  1  0
 12 13  2  0
 13 14  1  0
  8 15  1  0
 15 16  1  0
 16 17  1  0
 17 18  1  0
 18 19  2  0
 19 20  1  0
 19 21  1  0
 21 22  2  0
 22 23  1  0
 23 24  2  0
 24 25  1  0
 23 26  1  0
 26 27  1  0
 13  4  1  0
 25 15  1  0
 12  7  1  0
 24 18  1  0
  1 28  1  0
  1 29  1  0
  9 30  1  0
 10 31  1  0
 11 32  1  0
 14 33  1  0
 14 34  1  0
 16 35  1  0
 16 36  1  0
 17 37  1  0
 17 38  1  0
 21 39  1  0
 22 40  1  0
 27 41  1  0
 27 42  1  0
 27 43  1  0
M  END
$$$$
confid_5
     RDKit          3D

 43 46  0  0  0  0  0  0  0  0999 V2000
   24.2000   26.2400   35.6900 N   0  0  0  0  0  0  0  0  0  0  0  0
   24.8500   26.2800   34.4800 C   0  0  0  0  0  0  0  0  0  0  0  0
   24.3100   25.7400   33.5400 O   0  0  0  0  0  0  0  0  0  0  0  0
   26.1800   26.9700   34.4700 C   0  0  0  0  0  0  0  0  0  0  0  0
   26.6500   27.6000   35.5500 N   0  0  0  0  0  0  0  0  0  0  0  0
   27.7900   28.2700   35.6200 N   0  0  0  0  0  0  0  0  0  0  0  0
   28.5400   28.3000   34.5100 C   0  0  0  0  0  0  0  0  0  0  0  0
   29.7700   28.9400   34.5600 C   0  0  0  0  0  0  0  0  0  0  0  0
   30.7000   28.8900   33.5000 C   0  0  0  0  0  0  0  0  0  0  0  0
   30.3700   28.1400   32.3700 C   0  0  0  0  0  0  0  0  0  0  0  0
   29.1200   27.5200   32.2800 C   0  0  0  0  0  0  0  0  0  0  0  0
   28.2100   27.6100   33.3300 C   0  0  0  0  0  0  0  0  0  0  0  0
   26.9700   26.9700   33.3100 C   0  0  0  0  0  0  0  0  0  0  0  0
   26.5300   26.2400   32.2200 N   0  0  0  0  0  0  0  0  0  0  0  0
   30.1449   29.6561   35.7539 N   0  0  0  0  0  0  0  0  0  0  0  0
   30.8290   30.9524   35.6740 C   0  0  0  0  0  0  0  0  0  0  0  0
   30.4622   31.8224   36.8786 C   0  0  0  0  0  0  0  0  0  0  0  0
   30.5945   31.0552   38.1683 C   0  0  0  0  0  0  0  0  0  0  0  0
   30.8651   31.7159   39.3775 C   0  0  0  0  0  0  0  0  0  0  0  0
   31.0799   33.0557   39.4015 F   0  0  0  0  0  0  0  0  0  0  0  0
   30.9058   30.9952   40.5734 C   0  0  0  0  0  0  0  0  0  0  0  0
   30.6584   29.6202   40.5771 C   0  0  0  0  0  0  0  0  0  0  0  0
   30.3647   28.9484   39.3751 C   0  0  0  0  0  0  0  0  0  0  0  0
   30.3345   29.6733   38.1756 C   0  0  0  0  0  0  0  0  0  0  0  0
   30.0419   29.0167   36.9772 O   0  0  0  0  0  0  0  0  0  0  0  0
   30.0997   27.5708   39.3318 O   0  0  0  0  0  0  0  0  0  0  0  0
   30.0940   26.7161   40.4705 C   0  0  0  0  0  0  0  0  0  0  0  0
   23.2681   25.7738   35.7694 H   0  0  0  0  0  0  0  0  0  0  0  0
   24.5990   26.6536   36.5618 H   0  0  0  0  0  0  0  0  0  0  0  0
   31.6657   29.3744   33.5658 H   0  0  0  0  0  0  0  0  0  0  0  0
   31.0748   28.0573   31.5527 H   0  0  0  0  0  0  0  0  0  0  0  0
   28.8955   26.9538   31.3859 H   0  0  0  0  0  0  0  0  0  0  0  0
   26.6265   26.6231   31.2536 H   0  0  0  0  0  0  0  0  0  0  0  0
   26.3241   25.2204   32.3142 H   0  0  0  0  0  0  0  0  0  0  0  0
   31.9276   30.7838   35.6604 H   0  0  0  0  0  0  0  0  0  0  0  0
   30.5394   31.4868   34.7427 H   0  0  0  0  0  0  0  0  0  0  0  0
   31.1219   32.7170   36.8844 H   0  0  0  0  0  0  0  0  0  0  0  0
   29.4100   32.1654   36.7765 H   0  0  0  0  0  0  0  0  0  0  0  0
   31.1205   31.5052   41.5038 H   0  0  0  0  0  0  0  0  0  0  0  0
   30.6921   29.0907   41.5193 H   0  0  0  0  0  0  0  0  0  0  0  0
   29.8538   25.6827   40.1466 H   0  0  0  0  0  0  0  0  0  0  0  0
   29.3214   27.0503   41.1948 H   0  0  0  0  0  0  0  0  0  0  0  0
   31.0948   26.7143   40.9517 H   0  0  0  0  0  0  0  0  0  0  0  0
  1  2  1  0
  2  3  2  0
  2  4  1  0
  4  5  2  0
  5  6  1  0
  6  7  2  0
  7  8  1  0
  8  9  2  0
  9 10  1  0
 10 11  2  0
 11 12  1  0
 12 13  2  0
 13 14  1  0
  8 15  1  0
 15 16  1  0
 16 17  1  0
 17 18  1  0
 18 19  2  0
 19 20  1  0
 19 21  1  0
 21 22  2  0
 22 23  1  0
 23 24  2  0
 24 25  1  0
 23 26  1  0
 26 27  1  0
 13  4  1  0
 25 15  1  0
 12  7  1  0
 24 18  1  0
  1 28  1  0
  1 29  1  0
  9 30  1  0
 10 31  1  0
 11 32  1  0
 14 33  1  0
 14 34  1  0
 16 35  1  0
 16 36  1  0
 17 37  1  0
 17 38  1  0
 21 39  1  0
 22 40  1  0
 27 41  1  0
 27 42  1  0
 27 43  1  0
M  END
$$$$
confid_6
     RDKit          3D

 43 46  0  0  0  0  0  0  0  0999 V2000
   24.2000   26.2400   35.6900 N   0  0  0  0  0  0  0  0  0  0  0  0
   24.8500   26.2800   34.4800 C   0  0  0  0  0  0  0  0  0  0  0  0
   24.3100   25.7400   33.5400 O   0  0  0  0  0  0  0  0  0  0  0  0
   26.1800   26.9700   34.4700 C   0  0  0  0  0  0  0  0  0  0  0  0
   26.6500   27.6000   35.5500 N   0  0  0  0  0  0  0  0  0  0  0  0
   27.7900   28.2700   35.6200 N   0  0  0  0  0  0  0  0  0  0  0  0
   28.5400   28.3000   34.5100 C   0  0  0  0  0  0  0  0  0  0  0  0
   29.7700   28.9400   34.5600 C   0  0  0  0  0  0  0  0  0  0  0  0
   30.7000   28.8900   33.5000 C   0  0  0  0  0  0  0  0  0  0  0  0
   30.3700   28.1400   32.3700 C   0  0  0  0  0  0  0  0  0  0  0  0
   29.1200   27.5200   32.2800 C   0  0  0  0  0  0  0  0  0  0  0  0
   28.2100   27.6100   33.3300 C   0  0  0  0  0  0  0  0  0  0  0  0
   26.9700   26.9700   33.3100 C   0  0  0  0  0  0  0  0  0  0  0  0
   26.5300   26.2400   32.2200 N   0  0  0  0  0  0  0  0  0  0  0  0
   30.1273   29.6960   35.7305 N   0  0  0  0  0  0  0  0  0  0  0  0
   31.3205   29.3446   36.5092 C   0  0  0  0  0  0  0  0  0  0  0  0
   31.8858   30.5864   37.2025 C   0  0  0  0  0  0  0  0  0  0  0  0
   30.8028   31.3550   37.9147 C   0  0  0  0  0  0  0  0  0  0  0  0
   31.0973   32.1491   39.0347 C   0  0  0  0  0  0  0  0  0  0  0  0
   32.3561   32.1939   39.5401 F   0  0  0  0  0  0  0  0  0  0  0  0
   30.0916   32.9102   39.6354 C   0  0  0  0  0  0  0  0  0  0  0  0
   28.7947   32.9011   39.1161 C   0  0  0  0  0  0  0  0  0  0  0  0
   28.4898   32.1261   37.9808 C   0  0  0  0  0  0  0  0  0  0  0  0
   29.4999   31.3581   37.3851 C   0  0  0  0  0  0  0  0  0  0  0  0
   29.2089   30.5875   36.2563 O   0  0  0  0  0  0  0  0  0  0  0  0
   27.2036   32.0913   37.4202 O   0  0  0  0  0  0  0  0  0  0  0  0
   26.0860   32.8154   37.9240 C   0  0  0  0  0  0  0  0  0  0  0  0
   24.5986   26.6542   36.5616 H   0  0  0  0  0  0  0  0  0  0  0  0
   23.2682   25.7735   35.7694 H   0  0  0  0  0  0  0  0  0  0  0  0
   31.6502   29.4059   33.5552 H   0  0  0  0  0  0  0  0  0  0  0  0
   31.0715   28.0644   31.5492 H   0  0  0  0  0  0  0  0  0  0  0  0
   28.8948   26.9554   31.3851 H   0  0  0  0  0  0  0  0  0  0  0  0
   26.6262   26.6232   31.2536 H   0  0  0  0  0  0  0  0  0  0  0  0
   26.3242   25.2204   32.3141 H   0  0  0  0  0  0  0  0  0  0  0  0
   31.0394   28.5893   37.2747 H   0  0  0  0  0  0  0  0  0  0  0  0
   32.1065   28.9014   35.8613 H   0  0  0  0  0  0  0  0  0  0  0  0
   32.6745   30.2659   37.9171 H   0  0  0  0  0  0  0  0  0  0  0  0
   32.3518   31.2503   36.4428 H   0  0  0  0  0  0  0  0  0  0  0  0
   30.3191   33.5169   40.5025 H   0  0  0  0  0  0  0  0  0  0  0  0
   28.0387   33.5035   39.6009 H   0  0  0  0  0  0  0  0  0  0  0  0
   25.8636   32.4986   38.9649 H   0  0  0  0  0  0  0  0  0  0  0  0
   25.2006   32.6017   37.2909 H   0  0  0  0  0  0  0  0  0  0  0  0
   26.2916   33.9062   37.8915 H   0  0  0  0  0  0  0  0  0  0  0  0
  1  2  1  0
  2  3  2  0
  2  4  1  0
  4  5  2  0
  5  6  1  0
  6  7  2  0
  7  8  1  0
  8  9  2  0
  9 10  1  0
 10 11  2  0
 11 12  1  0
 12 13  2  0
 13 14  1  0
  8 15  1  0
 15 16  1  0
 16 17  1  0
 17 18  1  0
 18 19  2  0
 19 20  1  0
 19 21  1  0
 21 22  2  0
 22 23  1  0
 23 24  2  0
 24 25  1  0
 23 26  1  0
 26 27  1  0
 13  4  1  0
 25 15  1  0
 12  7  1  0
 24 18  1  0
  1 28  1  0
  1 29  1  0
  9 30  1  0
 10 31  1  0
 11 32  1  0
 14 33  1  0
 14 34  1  0
 16 35  1  0
 16 36  1  0
 17 37  1  0
 17 38  1  0
 21 39  1  0
 22 40  1  0
 27 41  1  0
 27 42  1  0
 27 43  1  0
M  END
$$$$
confid_7
     RDKit          3D

 43 46  0  0  0  0  0  0  0  0999 V2000
   24.2000   26.2400   35.6900 N   0  0  0  0  0  0  0  0  0  0  0  0
   24.8500   26.2800   34.4800 C   0  0  0  0  0  0  0  0  0  0  0  0
   24.3100   25.7400   33.5400 O   0  0  0  0  0  0  0  0  0  0  0  0
   26.1800   26.9700   34.4700 C   0  0  0  0  0  0  0  0  0  0  0  0
   26.6500   27.6000   35.5500 N   0  0  0  0  0  0  0  0  0  0  0  0
   27.7900   28.2700   35.6200 N   0  0  0  0  0  0  0  0  0  0  0  0
   28.5400   28.3000   34.5100 C   0  0  0  0  0  0  0  0  0  0  0  0
   29.7700   28.9400   34.5600 C   0  0  0  0  0  0  0  0  0  0  0  0
   30.7000   28.8900   33.5000 C   0  0  0  0  0  0  0  0  0  0  0  0
   30.3700   28.1400   32.3700 C   0  0  0  0  0  0  0  0  0  0  0  0
   29.1200   27.5200   32.2800 C   0  0  0  0  0  0  0  0  0  0  0  0
   28.2100   27.6100   33.3300 C   0  0  0  0  0  0  0  0  0  0  0  0
   26.9700   26.9700   33.3100 C   0  0  0  0  0  0  0  0  0  0  0  0
   26.5300   26.2400   32.2200 N   0  0  0  0  0  0  0  0  0  0  0  0
   30.1555   29.6535   35.7476 N   0  0  0  0  0  0  0  0  0  0  0  0
   30.4200   31.0954   35.6923 C   0  0  0  0  0  0  0  0  0  0  0  0
   31.4505   31.4871   36.7541 C   0  0  0  0  0  0  0  0  0  0  0  0
   31.0993   30.9029   38.0981 C   0  0  0  0  0  0  0  0  0  0  0  0
   31.5072   31.5286   39.2872 C   0  0  0  0  0  0  0  0  0  0  0  0
   32.1744   32.7100   39.2545 F   0  0  0  0  0  0  0  0  0  0  0  0
   31.2346   30.9310   40.5202 C   0  0  0  0  0  0  0  0  0  0  0  0
   30.5736   29.7015   40.5774 C   0  0  0  0  0  0  0  0  0  0  0  0
   30.1775   29.0524   39.3924 C   0  0  0  0  0  0  0  0  0  0  0  0
   30.4462   29.6588   38.1575 C   0  0  0  0  0  0  0  0  0  0  0  0
   30.0599   29.0221   36.9751 O   0  0  0  0  0  0  0  0  0  0  0  0
   29.5175   27.8138   39.4007 O   0  0  0  0  0  0  0  0  0  0  0  0
   29.1780   27.0903   40.5789 C   0  0  0  0  0  0  0  0  0  0  0  0
   23.2680   25.7738   35.7694 H   0  0  0  0  0  0  0  0  0  0  0  0
   24.5991   26.6534   36.5618 H   0  0  0  0  0  0  0  0  0  0  0  0
   31.6649   29.3761   33.5718 H   0  0  0  0  0  0  0  0  0  0  0  0
   31.0749   28.0573   31.5528 H   0  0  0  0  0  0  0  0  0  0  0  0
   28.8955   26.9538   31.3859 H   0  0  0  0  0  0  0  0  0  0  0  0
   26.6265   26.6231   31.2536 H   0  0  0  0  0  0  0  0  0  0  0  0
   26.3241   25.2204   32.3142 H   0  0  0  0  0  0  0  0  0  0  0  0
   29.4703   31.6418   35.8786 H   0  0  0  0  0  0  0  0  0  0  0  0
   30.7988   31.3933   34.6910 H   0  0  0  0  0  0  0  0  0  0  0  0
   31.4998   32.5962   36.8088 H   0  0  0  0  0  0  0  0  0  0  0  0
   32.4503   31.1076   36.4521 H   0  0  0  0  0  0  0  0  0  0  0  0
   31.5444   31.4179   41.4360 H   0  0  0  0  0  0  0  0  0  0  0  0
   30.3802   29.2623   41.5465 H   0  0  0  0  0  0  0  0  0  0  0  0
   28.6641   26.1503   40.2915 H   0  0  0  0  0  0  0  0  0  0  0  0
   30.0968   26.8339   41.1475 H   0  0  0  0  0  0  0  0  0  0  0  0
   28.4916   27.6917   41.2117 H   0  0  0  0  0  0  0  0  0  0  0  0
  1  2  1  0
  2  3  2  0
  2  4  1  0
  4  5  2  0
  5  6  1  0
  6  7  2  0
  7  8  1  0
  8  9  2  0
  9 10  1  0
 10 11  2  0
 11 12  1  0
 12 13  2  0
 13 14  1  0
  8 15  1  0
 15 16  1  0
 16 17  1  0
 17 18  1  0
 18 19  2  0
 19 20  1  0
 19 21  1  0
 21 22  2  0
 22 23  1  0
 23 24  2  0
 24 25  1  0
 23 26  1  0
 26 27  1  0
 13  4  1  0
 25 15  1  0
 12  7  1  0
 24 18  1  0
  1 28  1  0
  1 29  1  0
  9 30  1  0
 10 31  1  0
 11 32  1  0
 14 33  1  0
 14 34  1  0
 16 35  1  0
 16 36  1  0
 17 37  1  0
 17 38  1  0
 21 39  1  0
 22 40  1  0
 27 41  1  0
 27 42  1  0
 27 43  1  0
M  END
$$$$
