confid_0
     RDKit          3D

 45 49  0  0  0  0  0  0  0  0999 V2000
   24.4800   26.1000   36.1300 N   0  0  0  0  0  0  0  0  0  0  0  0
   25.2500   26.2500   34.9900 C   0  0  0  0  0  0  0  0  0  0  0  0
   24.7400   25.7600   33.9900 O   0  0  0  0  0  0  0  0  0  0  0  0
   26.5900   26.8900   34.9600 C   0  0  0  0  0  0  0  0  0  0  0  0
   27.0600   27.2400   36.1600 N   0  0  0  0  0  0  0  0  0  0  0  0
   28.3000   27.7100   36.2400 N   0  0  0  0  0  0  0  0  0  0  0  0
   29.0500   27.9600   35.1500 C   0  0  0  0  0  0  0  0  0  0  0  0
   30.3400   28.4900   35.2600 C   0  0  0  0  0  0  0  0  0  0  0  0
   31.1100   28.8200   34.1400 C   0  0  0  0  0  0  0  0  0  0  0  0
   30.5200   28.6700   32.8800 C   0  0  0  0  0  0  0  0  0  0  0  0
   29.2900   28.0200   32.7700 C   0  0  0  0  0  0  0  0  0  0  0  0
   28.5200   27.7100   33.8900 C   0  0  0  0  0  0  0  0  0  0  0  0
   27.2700   27.0800   33.7600 C   0  0  0  0  0  0  0  0  0  0  0  0
   26.7500   26.8800   32.4900 N   0  0  0  0  0  0  0  0  0  0  0  0
   23.4686   25.0897   36.3307 C   0  0  0  0  0  0  0  0  0  0  0  0
   23.5065   24.0133   35.5932 N   0  0  0  0  0  0  0  0  0  0  0  0
   22.6720   22.8497   35.5488 C   0  0  0  0  0  0  0  0  0  0  0  0
   21.3496   22.9077   35.6094 C   0  0  0  0  0  0  0  0  0  0  0  0
   20.1871   22.0242   35.2645 C   0  0  0  0  0  0  0  0  0  0  0  0
   19.2173   22.9798   35.5466 O   0  0  0  0  0  0  0  0  0  0  0  0
   20.2326   23.8531   35.9286 C   0  0  0  0  0  0  0  0  0  0  0  0
   20.1408   24.1344   37.4267 C   0  0  0  0  0  0  0  0  0  0  0  0
   21.2970   24.9217   37.9423 C   0  0  0  0  0  0  0  0  0  0  0  0
   22.5679   25.2622   37.4939 C   0  0  0  0  0  0  0  0  0  0  0  0
   22.7156   26.0136   38.7023 C   0  0  0  0  0  0  0  0  0  0  0  0
   21.4663   25.6517   39.2010 N   0  0  0  0  0  0  0  0  0  0  0  0
   20.6818   25.8965   40.3979 C   0  0  0  0  0  0  0  0  0  0  0  0
   24.6506   26.7755   36.9081 H   0  0  0  0  0  0  0  0  0  0  0  0
   30.7582   28.6623   36.2441 H   0  0  0  0  0  0  0  0  0  0  0  0
   32.0994   29.2456   34.2469 H   0  0  0  0  0  0  0  0  0  0  0  0
   31.0715   28.9443   31.9898 H   0  0  0  0  0  0  0  0  0  0  0  0
   28.9437   27.8128   31.7669 H   0  0  0  0  0  0  0  0  0  0  0  0
   26.7155   27.6567   31.7926 H   0  0  0  0  0  0  0  0  0  0  0  0
   26.3620   25.9527   32.2109 H   0  0  0  0  0  0  0  0  0  0  0  0
   23.1096   21.9321   35.1797 H   0  0  0  0  0  0  0  0  0  0  0  0
   20.1088   21.1478   35.9452 H   0  0  0  0  0  0  0  0  0  0  0  0
   20.1790   21.7465   34.1877 H   0  0  0  0  0  0  0  0  0  0  0  0
   20.2471   24.7717   35.2999 H   0  0  0  0  0  0  0  0  0  0  0  0
   19.2119   24.7090   37.6256 H   0  0  0  0  0  0  0  0  0  0  0  0
   20.0800   23.1829   37.9989 H   0  0  0  0  0  0  0  0  0  0  0  0
   22.7738   27.1100   38.5196 H   0  0  0  0  0  0  0  0  0  0  0  0
   23.5370   25.6231   39.3428 H   0  0  0  0  0  0  0  0  0  0  0  0
   19.7332   26.4011   40.1218 H   0  0  0  0  0  0  0  0  0  0  0  0
   21.2537   26.5431   41.0953 H   0  0  0  0  0  0  0  0  0  0  0  0
   20.4548   24.9306   40.8942 H   0  0  0  0  0  0  0  0  0  0  0  0
  1  2  1  0
  2  3  2  0
  2  4  1  0
  4  5  2  0
  5  6  1  0
  6  7  2  0
  7  8  1  0
  8  9  2  0
  9 10  1  0
 10 11  2  0
 11 12  1  0
 12 13  2  0
 13 14  1  0
  1 15  1  0
 15 16  2  0
 16 17  1  0
 17 18  2  0
 18 19  1  0
 19 20  1  0
 20 21  1  0
 21 22  1  0
 22 23  1  0
 23 24  2  0
 24 25  1  0
 25 26  1  0
 26 27  1  0
 13  4  1  0
 24 15  1  0
 12  7  1  0
 21 18  1  0
 26 23  1  0
  1 28  1  0
  8 29  1  0
  9 30  1  0
 10 31  1  0
 11 32  1  0
 14 33  1  0
 14 34  1  0
 17 35  1  0
 19 36  1  0
 19 37  1  0
 21 38  1  0
 22 39  1  0
 22 40  1  0
 25 41  1  0
 25 42  1  0
 27 43  1  0
 27 44  1  0
 27 45  1  0
M  END
$$$$
confid_1
     RDKit          3D

 45 49  0  0  0  0  0  0  0  0999 V2000
   24.4800   26.1000   36.1300 N   0  0  0  0  0  0  0  0  0  0  0  0
   25.2500   26.2500   34.9900 C   0  0  0  0  0  0  0  0  0  0  0  0
   24.7400   25.7600   33.9900 O   0  0  0  0  0  0  0  0  0  0  0  0
   26.5900   26.8900   34.9600 C   0  0  0  0  0  0  0  0  0  0  0  0
   27.0600   27.2400   36.1600 N   0  0  0  0  0  0  0  0  0  0  0  0
   28.3000   27.7100   36.2400 N   0  0  0  0  0  0  0  0  0  0  0  0
   29.0500   27.9600   35.1500 C   0  0  0  0  0  0  0  0  0  0  0  0
   30.3400   28.4900   35.2600 C   0  0  0  0  0  0  0  0  0  0  0  0
   31.1100   28.8200   34.1400 C   0  0  0  0  0  0  0  0  0  0  0  0
   30.5200   28.6700   32.8800 C   0  0  0  0  0  0  0  0  0  0  0  0
   29.2900   28.0200   32.7700 C   0  0  0  0  0  0  0  0  0  0  0  0
   28.5200   27.7100   33.8900 C   0  0  0  0  0  0  0  0  0  0  0  0
   27.2700   27.0800   33.7600 C   0  0  0  0  0  0  0  0  0  0  0  0
   26.7500   26.8800   32.4900 N   0  0  0  0  0  0  0  0  0  0  0  0
   23.0459   25.9368   36.1483 C   0  0  0  0  0  0  0  0  0  0  0  0
   22.3620   26.3112   35.1014 N   0  0  0  0  0  0  0  0  0  0  0  0
   20.9587   26.2883   34.8138 C   0  0  0  0  0  0  0  0  0  0  0  0
   20.1805   25.2555   35.1030 C   0  0  0  0  0  0  0  0  0  0  0  0
   18.8413   24.7272   34.6800 C   0  0  0  0  0  0  0  0  0  0  0  0
   18.9379   23.5471   35.4094 O   0  0  0  0  0  0  0  0  0  0  0  0
   20.1722   23.9798   35.8881 C   0  0  0  0  0  0  0  0  0  0  0  0
   20.0847   24.2416   37.3902 C   0  0  0  0  0  0  0  0  0  0  0  0
   21.3127   24.8811   37.9431 C   0  0  0  0  0  0  0  0  0  0  0  0
   22.4309   25.5309   37.4334 C   0  0  0  0  0  0  0  0  0  0  0  0
   22.8954   25.6387   38.7822 C   0  0  0  0  0  0  0  0  0  0  0  0
   21.7633   25.0380   39.3279 N   0  0  0  0  0  0  0  0  0  0  0  0
   21.2685   24.6916   40.6485 C   0  0  0  0  0  0  0  0  0  0  0  0
   24.9755   26.1174   37.0491 H   0  0  0  0  0  0  0  0  0  0  0  0
   30.7582   28.6622   36.2441 H   0  0  0  0  0  0  0  0  0  0  0  0
   32.0995   29.2454   34.2469 H   0  0  0  0  0  0  0  0  0  0  0  0
   31.0715   28.9442   31.9898 H   0  0  0  0  0  0  0  0  0  0  0  0
   28.9438   27.8128   31.7670 H   0  0  0  0  0  0  0  0  0  0  0  0
   26.3615   25.9529   32.2112 H   0  0  0  0  0  0  0  0  0  0  0  0
   26.7155   27.6567   31.7926 H   0  0  0  0  0  0  0  0  0  0  0  0
   20.5814   27.0059   34.0981 H   0  0  0  0  0  0  0  0  0  0  0  0
   18.0042   25.3645   35.0421 H   0  0  0  0  0  0  0  0  0  0  0  0
   18.7991   24.5233   33.5876 H   0  0  0  0  0  0  0  0  0  0  0  0
   20.9942   23.2863   35.6007 H   0  0  0  0  0  0  0  0  0  0  0  0
   19.9293   23.2749   37.9134 H   0  0  0  0  0  0  0  0  0  0  0  0
   19.2151   24.8951   37.6205 H   0  0  0  0  0  0  0  0  0  0  0  0
   22.9921   26.6970   39.1111 H   0  0  0  0  0  0  0  0  0  0  0  0
   23.8057   25.0272   38.9717 H   0  0  0  0  0  0  0  0  0  0  0  0
   21.1254   23.5932   40.7132 H   0  0  0  0  0  0  0  0  0  0  0  0
   20.2985   25.2004   40.8245 H   0  0  0  0  0  0  0  0  0  0  0  0
   21.9987   25.0143   41.4194 H   0  0  0  0  0  0  0  0  0  0  0  0
  1  2  1  0
  2  3  2  0
  2  4  1  0
  4  5  2  0
  5  6  1  0
  6  7  2  0
  7  8  1  0
  8  9  2  0
  9 10  1  0
 10 11  2  0
 11 12  1  0
 12 13  2  0
 13 14  1  0
  1 15  1  0
 15 16  2  0
 16 17  1  0
 17 18  2  0
 18 19  1  0
 19 20  1  0
 20 21  1  0
 21 22  1  0
 22 23  1  0
 23 24  2  0
 24 25  1  0
 25 26  1  0
 26 27  1  0
 13  4  1  0
 24 15  1  0
 12  7  1  0
 21 18  1  0
 26 23  1  0
  1 28  1  0
  8 29  1  0
  9 30  1  0
 10 31  1  0
 11 32  1  0
 14 33  1  0
 14 34  1  0
 17 35  1  0
 19 36  1  0
 19 37  1  0
 21 38  1  0
 22 39  1  0
 22 40  1  0
 25 41  1  0
 25 42  1  0
 27 43  1  0
 27 44  1  0
 27 45  1  0
M  END
$$$$
confid_2
     RDKit          3D

 45 49  0  0  0  0  0  0  0  0999 V2000
   24.4800   26.1000   36.1300 N   0  0  0  0  0  0  0  0  0  0  0  0
   25.2500   26.2500   34.9900 C   0  0  0  0  0  0  0  0  0  0  0  0
   24.7400   25.7600   33.9900 O   0  0  0  0  0  0  0  0  0  0  0  0
   26.5900   26.8900   34.9600 C   0  0  0  0  0  0  0  0  0  0  0  0
   27.0600   27.2400   36.1600 N   0  0  0  0  0  0  0  0  0  0  0  0
   28.3000   27.7100   36.2400 N   0  0  0  0  0  0  0  0  0  0  0  0
   29.0500   27.9600   35.1500 C   0  0  0  0  0  0  0  0  0  0  0  0
   30.3400   28.4900   35.2600 C   0  0  0  0  0  0  0  0  0  0  0  0
   31.1100   28.8200   34.1400 C   0  0  0  0  0  0  0  0  0  0  0  0
   30.5200   28.6700   32.8800 C   0  0  0  0  0  0  0  0  0  0  0  0
   29.2900   28.0200   32.7700 C   0  0  0  0  0  0  0  0  0  0  0  0
   28.5200   27.7100   33.8900 C   0  0  0  0  0  0  0  0  0  0  0  0
   27.2700   27.0800   33.7600 C   0  0  0  0  0  0  0  0  0  0  0  0
   26.7500   26.8800   32.4900 N   0  0  0  0  0  0  0  0  0  0  0  0
   23.5241   25.0454   36.3677 C   0  0  0  0  0  0  0  0  0  0  0  0
   23.5357   23.9978   35.5887 N   0  0  0  0  0  0  0  0  0  0  0  0
   22.7512   22.7992   35.5736 C   0  0  0  0  0  0  0  0  0  0  0  0
   22.4569   22.1131   36.6681 C   0  0  0  0  0  0  0  0  0  0  0  0
   21.9936   20.7282   37.0126 C   0  0  0  0  0  0  0  0  0  0  0  0
   22.0924   20.9032   38.3884 O   0  0  0  0  0  0  0  0  0  0  0  0
   22.4889   22.2188   38.1617 C   0  0  0  0  0  0  0  0  0  0  0  0
   21.4230   23.1815   38.6793 C   0  0  0  0  0  0  0  0  0  0  0  0
   21.7144   24.6029   38.3394 C   0  0  0  0  0  0  0  0  0  0  0  0
   22.5265   25.2799   37.4367 C   0  0  0  0  0  0  0  0  0  0  0  0
   22.0376   26.4934   38.0159 C   0  0  0  0  0  0  0  0  0  0  0  0
   21.1789   25.8455   38.9006 N   0  0  0  0  0  0  0  0  0  0  0  0
   20.2212   26.2184   39.9265 C   0  0  0  0  0  0  0  0  0  0  0  0
   24.6327   26.7896   36.8996 H   0  0  0  0  0  0  0  0  0  0  0  0
   30.7580   28.6629   36.2441 H   0  0  0  0  0  0  0  0  0  0  0  0
   32.0983   29.2480   34.2471 H   0  0  0  0  0  0  0  0  0  0  0  0
   31.0668   28.9543   31.9901 H   0  0  0  0  0  0  0  0  0  0  0  0
   28.9258   27.8586   31.7656 H   0  0  0  0  0  0  0  0  0  0  0  0
   25.7673   27.1503   32.2658 H   0  0  0  0  0  0  0  0  0  0  0  0
   27.2968   26.3786   31.7554 H   0  0  0  0  0  0  0  0  0  0  0  0
   22.6293   22.2922   34.6263 H   0  0  0  0  0  0  0  0  0  0  0  0
   22.7011   19.9494   36.6523 H   0  0  0  0  0  0  0  0  0  0  0  0
   20.9421   20.5465   36.6981 H   0  0  0  0  0  0  0  0  0  0  0  0
   23.5079   22.4187   38.5623 H   0  0  0  0  0  0  0  0  0  0  0  0
   20.4251   22.9174   38.2663 H   0  0  0  0  0  0  0  0  0  0  0  0
   21.3672   23.0920   39.7847 H   0  0  0  0  0  0  0  0  0  0  0  0
   22.8269   27.0563   38.5621 H   0  0  0  0  0  0  0  0  0  0  0  0
   21.4742   27.1128   37.2834 H   0  0  0  0  0  0  0  0  0  0  0  0
   20.1645   27.3242   40.0029 H   0  0  0  0  0  0  0  0  0  0  0  0
   20.5423   25.7981   40.9018 H   0  0  0  0  0  0  0  0  0  0  0  0
   19.2218   25.8152   39.6627 H   0  0  0  0  0  0  0  0  0  0  0  0
  1  2  1  0
  2  3  2  0
  2  4  1  0
  4  5  2  0
  5  6  1  0
  6  7  2  0
  7  8  1  0
  8  9  2  0
  9 10  1  0
 10 11  2  0
 11 12  1  0
 12 13  2  0
 13 14  1  0
  1 15  1  0
 15 16  2  0
 16 17  1  0
 17 18  2  0
 18 19  1  0
 19 20  1  0
 20 21  1  0
 21 22  1  0
 22 23  1  0
 23 24  2  0
 24 25  1  0
 25 26  1  0
 26 27  1  0
 13  4  1  0
 24 15  1  0
 12  7  1  0
 21 18  1  0
 26 23  1  0
  1 28  1  0
  8 29  1  0
  9 30  1  0
 10 31  1  0
 11 32  1  0
 14 33  1  0
 14 34  1  0
 17 35  1  0
 19 36  1  0
 19 37  1  0
 21 38  1  0
 22 39  1  0
 22 40  1  0
 25 41  1  0
 25 42  1  0
 27 43  1  0
 27 44  1  0
 27 45  1  0
M  END
$$$$
confid_3
     RDKit          3D

 45 49  0  0  0  0  0  0  0  0999 V2000
   24.4800   26.1000   36.1300 N   0  0  0  0  0  0  0  0  0  0  0  0
   25.2500   26.2500   34.9900 C   0  0  0  0  0  0  0  0  0  0  0  0
   24.7400   25.7600   33.9900 O   0  0  0  0  0  0  0  0  0  0  0  0
   26.5900   26.8900   34.9600 C   0  0  0  0  0  0  0  0  0  0  0  0
   27.0600   27.2400   36.1600 N   0  0  0  0  0  0  0  0  0  0  0  0
   28.3000   27.7100   36.2400 N   0  0  0  0  0  0  0  0  0  0  0  0
   29.0500   27.9600   35.1500 C   0  0  0  0  0  0  0  0  0  0  0  0
   30.3400   28.4900   35.2600 C   0  0  0  0  0  0  0  0  0  0  0  0
   31.1100   28.8200   34.1400 C   0  0  0  0  0  0  0  0  0  0  0  0
   30.5200   28.6700   32.8800 C   0  0  0  0  0  0  0  0  0  0  0  0
   29.2900   28.0200   32.7700 C   0  0  0  0  0  0  0  0  0  0  0  0
   28.5200   27.7100   33.8900 C   0  0  0  0  0  0  0  0  0  0  0  0
   27.2700   27.0800   33.7600 C   0  0  0  0  0  0  0  0  0  0  0  0
   26.7500   26.8800   32.4900 N   0  0  0  0  0  0  0  0  0  0  0  0
   23.0404   26.0056   36.1587 C   0  0  0  0  0  0  0  0  0  0  0  0
   22.3679   26.3336   35.0890 N   0  0  0  0  0  0  0  0  0  0  0  0
   20.9642   26.3703   34.8048 C   0  0  0  0  0  0  0  0  0  0  0  0
   20.0664   26.8571   35.6488 C   0  0  0  0  0  0  0  0  0  0  0  0
   18.6518   27.3546   35.5906 C   0  0  0  0  0  0  0  0  0  0  0  0
   18.6111   27.7679   36.9174 O   0  0  0  0  0  0  0  0  0  0  0  0
   19.9111   27.2934   37.0731 C   0  0  0  0  0  0  0  0  0  0  0  0
   19.9215   26.1034   38.0290 C   0  0  0  0  0  0  0  0  0  0  0  0
   21.2613   25.4596   38.1329 C   0  0  0  0  0  0  0  0  0  0  0  0
   22.4343   25.4423   37.3870 C   0  0  0  0  0  0  0  0  0  0  0  0
   22.9814   24.5926   38.3996 C   0  0  0  0  0  0  0  0  0  0  0  0
   21.8057   24.5515   39.1452 N   0  0  0  0  0  0  0  0  0  0  0  0
   21.3391   23.9287   40.3713 C   0  0  0  0  0  0  0  0  0  0  0  0
   24.9768   26.0949   37.0488 H   0  0  0  0  0  0  0  0  0  0  0  0
   30.7582   28.6624   36.2441 H   0  0  0  0  0  0  0  0  0  0  0  0
   32.0994   29.2455   34.2469 H   0  0  0  0  0  0  0  0  0  0  0  0
   31.0715   28.9442   31.9898 H   0  0  0  0  0  0  0  0  0  0  0  0
   28.9438   27.8126   31.7670 H   0  0  0  0  0  0  0  0  0  0  0  0
   26.7154   27.6567   31.7926 H   0  0  0  0  0  0  0  0  0  0  0  0
   26.3619   25.9528   32.2109 H   0  0  0  0  0  0  0  0  0  0  0  0
   20.6589   26.2518   33.7742 H   0  0  0  0  0  0  0  0  0  0  0  0
   17.9256   26.5344   35.3957 H   0  0  0  0  0  0  0  0  0  0  0  0
   18.5412   28.2148   34.8945 H   0  0  0  0  0  0  0  0  0  0  0  0
   20.6161   28.1059   37.3599 H   0  0  0  0  0  0  0  0  0  0  0  0
   19.6243   26.4543   39.0399 H   0  0  0  0  0  0  0  0  0  0  0  0
   19.1848   25.3360   37.7059 H   0  0  0  0  0  0  0  0  0  0  0  0
   23.8023   25.0807   38.9701 H   0  0  0  0  0  0  0  0  0  0  0  0
   23.2486   23.5867   38.0065 H   0  0  0  0  0  0  0  0  0  0  0  0
   20.4649   23.2830   40.1483 H   0  0  0  0  0  0  0  0  0  0  0  0
   22.1503   23.3117   40.8115 H   0  0  0  0  0  0  0  0  0  0  0  0
   21.0413   24.7153   41.0947 H   0  0  0  0  0  0  0  0  0  0  0  0
  1  2  1  0
  2  3  2  0
  2  4  1  0
  4  5  2  0
  5  6  1  0
  6  7  2  0
  7  8  1  0
  8  9  2  0
  9 10  1  0
 10 11  2  0
 11 12  1  0
 12 13  2  0
 13 14  1  0
  1 15  1  0
 15 16  2  0
 16 17  1  0
 17 18  2  0
 18 19  1  0
 19 20  1  0
 20 21  1  0
 21 22  1  0
 22 23  1  0
 23 24  2  0
 24 25  1  0
 25 26  1  0
 26 27  1  0
 13  4  1  0
 24 15  1  0
 12  7  1  0
 21 18  1  0
 26 23  1  0
  1 28  1  0
  8 29  1  0
  9 30  1  0
 10 31  1  0
 11 32  1  0
 14 33  1  0
 14 34  1  0
 17 35  1  0
 19 36  1  0
 19 37  1  0
 21 38  1  0
 22 39  1  0
 22 40  1  0
 25 41  1  0
 25 42  1  0
 27 43  1  0
 27 44  1  0
 27 45  1  0
M  END
$$$$
confid_4
     RDKit          3D

 45 49  0  0  0  0  0  0  0  0999 V2000
   24.4800   26.1000   36.1300 N   0  0  0  0  0  0  0  0  0  0  0  0
   25.2500   26.2500   34.9900 C   0  0  0  0  0  0  0  0  0  0  0  0
   24.7400   25.7600   33.9900 O   0  0  0  0  0  0  0  0  0  0  0  0
   26.5900   26.8900   34.9600 C   0  0  0  0  0  0  0  0  0  0  0  0
   27.0600   27.2400   36.1600 N   0  0  0  0  0  0  0  0  0  0  0  0
   28.3000   27.7100   36.2400 N   0  0  0  0  0  0  0  0  0  0  0  0
   29.0500   27.9600   35.1500 C   0  0  0  0  0  0  0  0  0  0  0  0
   30.3400   28.4900   35.2600 C   0  0  0  0  0  0  0  0  0  0  0  0
   31.1100   28.8200   34.1400 C   0  0  0  0  0  0  0  0  0  0  0  0
   30.5200   28.6700   32.8800 C   0  0  0  0  0  0  0  0  0  0  0  0
   29.2900   28.0200   32.7700 C   0  0  0  0  0  0  0  0  0  0  0  0
   28.5200   27.7100   33.8900 C   0  0  0  0  0  0  0  0  0  0  0  0
   27.2700   27.0800   33.7600 C   0  0  0  0  0  0  0  0  0  0  0  0
   26.7500   26.8800   32.4900 N   0  0  0  0  0  0  0  0  0  0  0  0
   23.1767   25.4768   36.2439 C   0  0  0  0  0  0  0  0  0  0  0  0
   22.5973   25.0054   35.1736 N   0  0  0  0  0  0  0  0  0  0  0  0
   21.3380   24.3550   34.9660 C   0  0  0  0  0  0  0  0  0  0  0  0
   20.2095   24.7735   35.5205 C   0  0  0  0  0  0  0  0  0  0  0  0
   18.7360   24.6022   35.2951 C   0  0  0  0  0  0  0  0  0  0  0  0
   18.3549   25.5195   36.2679 O   0  0  0  0  0  0  0  0  0  0  0  0
   19.7003   25.7061   36.5759 C   0  0  0  0  0  0  0  0  0  0  0  0
   19.9914   25.1798   37.9791 C   0  0  0  0  0  0  0  0  0  0  0  0
   21.4449   25.1857   38.3123 C   0  0  0  0  0  0  0  0  0  0  0  0
   22.6431   25.2952   37.6150 C   0  0  0  0  0  0  0  0  0  0  0  0
   23.3044   25.2132   38.8813 C   0  0  0  0  0  0  0  0  0  0  0  0
   22.1246   25.0511   39.6030 N   0  0  0  0  0  0  0  0  0  0  0  0
   21.7386   24.8587   40.9901 C   0  0  0  0  0  0  0  0  0  0  0  0
   24.8729   26.4965   37.0122 H   0  0  0  0  0  0  0  0  0  0  0  0
   30.7580   28.6627   36.2442 H   0  0  0  0  0  0  0  0  0  0  0  0
   32.0984   29.2478   34.2471 H   0  0  0  0  0  0  0  0  0  0  0  0
   31.0667   28.9544   31.9900 H   0  0  0  0  0  0  0  0  0  0  0  0
   28.9259   27.8587   31.7658 H   0  0  0  0  0  0  0  0  0  0  0  0
   27.2967   26.3781   31.7556 H   0  0  0  0  0  0  0  0  0  0  0  0
   25.7673   27.1504   32.2659 H   0  0  0  0  0  0  0  0  0  0  0  0
   21.2544   23.6801   34.1253 H   0  0  0  0  0  0  0  0  0  0  0  0
   18.4248   24.9380   34.2811 H   0  0  0  0  0  0  0  0  0  0  0  0
   18.3895   23.5743   35.5428 H   0  0  0  0  0  0  0  0  0  0  0  0
   20.0199   26.7605   36.4168 H   0  0  0  0  0  0  0  0  0  0  0  0
   19.4611   25.8194   38.7165 H   0  0  0  0  0  0  0  0  0  0  0  0
   19.6111   24.1402   38.0913 H   0  0  0  0  0  0  0  0  0  0  0  0
   23.8194   26.1589   39.1600 H   0  0  0  0  0  0  0  0  0  0  0  0
   23.9569   24.3151   38.9605 H   0  0  0  0  0  0  0  0  0  0  0  0
   21.0644   25.6825   41.3048 H   0  0  0  0  0  0  0  0  0  0  0  0
   21.2084   23.8892   41.0955 H   0  0  0  0  0  0  0  0  0  0  0  0
   22.6433   24.8577   41.6344 H   0  0  0  0  0  0  0  0  0  0  0  0
  1  2  1  0
  2  3  2  0
  2  4  1  0
  4  5  2  0
  5  6  1  0
  6  7  2  0
  7  8  1  0
  8  9  2  0
  9 10  1  0
 10 11  2  0
 11 12  1  0
 12 13  2  0
 13 14  1  0
  1 15  1  0
 15 16  2  0
 16 17  1  0
 17 18  2  0
 18 19  1  0
 19 20  1  0
 20 21  1  0
 21 22  1  0
 22 23  1  0
 23 24  2  0
 24 25  1  0
 25 26  1  0
 26 27  1  0
 13  4  1  0
 24 15  1  0
 12  7  1  0
 21 18  1  0
 26 23  1  0
  1 28  1  0
  8 29  1  0
  9 30  1  0
 10 31  1  0
 11 32  1  0
 14 33  1  0
 14 34  1  0
 17 35  1  0
 19 36  1  0
 19 37  1  0
 21 38  1  0
 22 39  1  0
 22 40  1  0
 25 41  1  0
 25 42  1  0
 27 43  1  0
 27 44  1  0
 27 45  1  0
M  END
$$$$
confid_5
     RDKit          3D

 45 49  0  0  0  0  0  0  0  0999 V2000
   24.4800   26.1000   36.1300 N   0  0  0  0  0  0  0  0  0  0  0  0
   25.2500   26.2500   34.9900 C   0  0  0  0  0  0  0  0  0  0  0  0
   24.7400   25.7600   33.9900 O   0  0  0  0  0  0  0  0  0  0  0  0
   26.5900   26.8900   34.9600 C   0  0  0  0  0  0  0  0  0  0  0  0
   27.0600   27.2400   36.1600 N   0  0  0  0  0  0  0  0  0  0  0  0
   28.3000   27.7100   36.2400 N   0  0  0  0  0  0  0  0  0  0  0  0
   29.0500   27.9600   35.1500 C   0  0  0  0  0  0  0  0  0  0  0  0
   30.3400   28.4900   35.2600 C   0  0  0  0  0  0  0  0  0  0  0  0
   31.1100   28.8200   34.1400 C   0  0  0  0  0  0  0  0  0  0  0  0
   30.5200   28.6700   32.8800 C   0  0  0  0  0  0  0  0  0  0  0  0
   29.2900   28.0200   32.7700 C   0  0  0  0  0  0  0  0  0  0  0  0
   28.5200   27.7100   33.8900 C   0  0  0  0  0  0  0  0  0  0  0  0
   27.2700   27.0800   33.7600 C   0  0  0  0  0  0  0  0  0  0  0  0
   26.7500   26.8800   32.4900 N   0  0  0  0  0  0  0  0  0  0  0  0
   23.0487   25.9570   36.1312 C   0  0  0  0  0  0  0  0  0  0  0  0
   22.5142   25.2789   37.1070 N   0  0  0  0  0  0  0  0  0  0  0  0
   21.1425   24.9688   37.3813 C   0  0  0  0  0  0  0  0  0  0  0  0
   20.3143   24.5315   36.4422 C   0  0  0  0  0  0  0  0  0  0  0  0
   19.0177   23.7813   36.3664 C   0  0  0  0  0  0  0  0  0  0  0  0
   19.0394   23.6359   34.9831 O   0  0  0  0  0  0  0  0  0  0  0  0
   20.2217   24.3720   34.9539 C   0  0  0  0  0  0  0  0  0  0  0  0
   19.9851   25.7026   34.2360 C   0  0  0  0  0  0  0  0  0  0  0  0
   21.0808   26.6966   34.4377 C   0  0  0  0  0  0  0  0  0  0  0  0
   22.2538   26.7649   35.1773 C   0  0  0  0  0  0  0  0  0  0  0  0
   22.4697   28.0520   34.5910 C   0  0  0  0  0  0  0  0  0  0  0  0
   21.2854   28.0258   33.8563 N   0  0  0  0  0  0  0  0  0  0  0  0
   20.5841   28.8959   32.9293 C   0  0  0  0  0  0  0  0  0  0  0  0
   24.9719   26.0218   37.0488 H   0  0  0  0  0  0  0  0  0  0  0  0
   30.7582   28.6623   36.2441 H   0  0  0  0  0  0  0  0  0  0  0  0
   32.0994   29.2455   34.2469 H   0  0  0  0  0  0  0  0  0  0  0  0
   31.0715   28.9443   31.9898 H   0  0  0  0  0  0  0  0  0  0  0  0
   28.9435   27.8130   31.7670 H   0  0  0  0  0  0  0  0  0  0  0  0
   26.7143   27.6572   31.7933 H   0  0  0  0  0  0  0  0  0  0  0  0
   26.3604   25.9534   32.2112 H   0  0  0  0  0  0  0  0  0  0  0  0
   20.8558   24.8089   38.4118 H   0  0  0  0  0  0  0  0  0  0  0  0
   18.1546   24.3990   36.6998 H   0  0  0  0  0  0  0  0  0  0  0  0
   19.0760   22.7947   36.8764 H   0  0  0  0  0  0  0  0  0  0  0  0
   21.0661   23.7831   34.5308 H   0  0  0  0  0  0  0  0  0  0  0  0
   19.0360   26.1629   34.5871 H   0  0  0  0  0  0  0  0  0  0  0  0
   19.8834   25.5085   33.1476 H   0  0  0  0  0  0  0  0  0  0  0  0
   22.4584   28.8662   35.3488 H   0  0  0  0  0  0  0  0  0  0  0  0
   23.3559   28.0836   33.9202 H   0  0  0  0  0  0  0  0  0  0  0  0
   19.5820   29.1402   33.3380 H   0  0  0  0  0  0  0  0  0  0  0  0
   21.1612   29.8327   32.7843 H   0  0  0  0  0  0  0  0  0  0  0  0
   20.4685   28.3800   31.9538 H   0  0  0  0  0  0  0  0  0  0  0  0
  1  2  1  0
  2  3  2  0
  2  4  1  0
  4  5  2  0
  5  6  1  0
  6  7  2  0
  7  8  1  0
  8  9  2  0
  9 10  1  0
 10 11  2  0
 11 12  1  0
 12 13  2  0
 13 14  1  0
  1 15  1  0
 15 16  2  0
 16 17  1  0
 17 18  2  0
 18 19  1  0
 19 20  1  0
 20 21  1  0
 21 22  1  0
 22 23  1  0
 23 24  2  0
 24 25  1  0
 25 26  1  0
 26 27  1  0
 13  4  1  0
 24 15  1  0
 12  7  1  0
 21 18  1  0
 26 23  1  0
  1 28  1  0
  8 29  1  0
  9 30  1  0
 10 31  1  0
 11 32  1  0
 14 33  1  0
 14 34  1  0
 17 35  1  0
 19 36  1  0
 19 37  1  0
 21 38  1  0
 22 39  1  0
 22 40  1  0
 25 41  1  0
 25 42  1  0
 27 43  1  0
 27 44  1  0
 27 45  1  0
M  END
$$$$
confid_6
     RDKit          3D

 45 49  0  0  0  0  0  0  0  0999 V2000
   24.4800   26.1000   36.1300 N   0  0  0  0  0  0  0  0  0  0  0  0
   25.2500   26.2500   34.9900 C   0  0  0  0  0  0  0  0  0  0  0  0
   24.7400   25.7600   33.9900 O   0  0  0  0  0  0  0  0  0  0  0  0
   26.5900   26.8900   34.9600 C   0  0  0  0  0  0  0  0  0  0  0  0
   27.0600   27.2400   36.1600 N   0  0  0  0  0  0  0  0  0  0  0  0
   28.3000   27.7100   36.2400 N   0  0  0  0  0  0  0  0  0  0  0  0
   29.0500   27.9600   35.1500 C   0  0  0  0  0  0  0  0  0  0  0  0
   30.3400   28.4900   35.2600 C   0  0  0  0  0  0  0  0  0  0  0  0
   31.1100   28.8200   34.1400 C   0  0  0  0  0  0  0  0  0  0  0  0
   30.5200   28.6700   32.8800 C   0  0  0  0  0  0  0  0  0  0  0  0
   29.2900   28.0200   32.7700 C   0  0  0  0  0  0  0  0  0  0  0  0
   28.5200   27.7100   33.8900 C   0  0  0  0  0  0  0  0  0  0  0  0
   27.2700   27.0800   33.7600 C   0  0  0  0  0  0  0  0  0  0  0  0
   26.7500   26.8800   32.4900 N   0  0  0  0  0  0  0  0  0  0  0  0
   23.0406   26.0160   36.1457 C   0  0  0  0  0  0  0  0  0  0  0  0
   22.3775   26.5354   35.1480 N   0  0  0  0  0  0  0  0  0  0  0  0
   20.9754   26.6282   34.8675 C   0  0  0  0  0  0  0  0  0  0  0  0
   20.1285   25.6285   35.0668 C   0  0  0  0  0  0  0  0  0  0  0  0
   18.7493   25.2434   34.6184 C   0  0  0  0  0  0  0  0  0  0  0  0
   18.7671   23.9914   35.2237 O   0  0  0  0  0  0  0  0  0  0  0  0
   20.0331   24.2863   35.7255 C   0  0  0  0  0  0  0  0  0  0  0  0
   19.9722   24.4106   37.2462 C   0  0  0  0  0  0  0  0  0  0  0  0
   21.2553   24.8829   37.8415 C   0  0  0  0  0  0  0  0  0  0  0  0
   22.4113   25.5043   37.3858 C   0  0  0  0  0  0  0  0  0  0  0  0
   22.9146   25.3849   38.7193 C   0  0  0  0  0  0  0  0  0  0  0  0
   21.7406   24.8302   39.2233 N   0  0  0  0  0  0  0  0  0  0  0  0
   21.3004   24.2426   40.4769 C   0  0  0  0  0  0  0  0  0  0  0  0
   24.9808   26.0528   37.0451 H   0  0  0  0  0  0  0  0  0  0  0  0
   30.7577   28.6629   36.2441 H   0  0  0  0  0  0  0  0  0  0  0  0
   32.0982   29.2486   34.2473 H   0  0  0  0  0  0  0  0  0  0  0  0
   31.0677   28.9537   31.9901 H   0  0  0  0  0  0  0  0  0  0  0  0
   28.9261   27.8599   31.7652 H   0  0  0  0  0  0  0  0  0  0  0  0
   25.7652   27.1450   32.2670 H   0  0  0  0  0  0  0  0  0  0  0  0
   27.2984   26.3827   31.7541 H   0  0  0  0  0  0  0  0  0  0  0  0
   20.6456   27.4341   34.2268 H   0  0  0  0  0  0  0  0  0  0  0  0
   18.6744   25.1596   33.5121 H   0  0  0  0  0  0  0  0  0  0  0  0
   17.9666   25.8993   35.0621 H   0  0  0  0  0  0  0  0  0  0  0  0
   20.8018   23.5666   35.3633 H   0  0  0  0  0  0  0  0  0  0  0  0
   19.1635   25.1110   37.5502 H   0  0  0  0  0  0  0  0  0  0  0  0
   19.7355   23.4151   37.6758 H   0  0  0  0  0  0  0  0  0  0  0  0
   23.7612   24.6658   38.7872 H   0  0  0  0  0  0  0  0  0  0  0  0
   23.1284   26.3734   39.1812 H   0  0  0  0  0  0  0  0  0  0  0  0
   21.5076   24.9458   41.3096 H   0  0  0  0  0  0  0  0  0  0  0  0
   20.2102   24.0401   40.4307 H   0  0  0  0  0  0  0  0  0  0  0  0
   21.8448   23.2914   40.6511 H   0  0  0  0  0  0  0  0  0  0  0  0
  1  2  1  0
  2  3  2  0
  2  4  1  0
  4  5  2  0
  5  6  1  0
  6  7  2  0
  7  8  1  0
  8  9  2  0
  9 10  1  0
 10 11  2  0
 11 12  1  0
 12 13  2  0
 13 14  1  0
  1 15  1  0
 15 16  2  0
 16 17  1  0
 17 18  2  0
 18 19  1  0
 19 20  1  0
 20 21  1  0
 21 22  1  0
 22 23  1  0
 23 24  2  0
 24 25  1  0
 25 26  1  0
 26 27  1  0
 13  4  1  0
 24 15  1  0
 12  7  1  0
 21 18  1  0
 26 23  1  0
  1 28  1  0
  8 29  1  0
  9 30  1  0
 10 31  1  0
 11 32  1  0
 14 33  1  0
 14 34  1  0
 17 35  1  0
 19 36  1  0
 19 37  1  0
 21 38  1  0
 22 39  1  0
 22 40  1  0
 25 41  1  0
 25 42  1  0
 27 43  1  0
 27 44  1  0
 27 45  1  0
M  END
$$$$
confid_7
     RDKit          3D

 45 49  0  0  0  0  0  0  0  0999 V2000
   24.4800   26.1000   36.1300 N   0  0  0  0  0  0  0  0  0  0  0  0
   25.2500   26.2500   34.9900 C   0  0  0  0  0  0  0  0  0  0  0  0
   24.7400   25.7600   33.9900 O   0  0  0  0  0  0  0  0  0  0  0  0
   26.5900   26.8900   34.9600 C   0  0  0  0  0  0  0  0  0  0  0  0
   27.0600   27.2400   36.1600 N   0  0  0  0  0  0  0  0  0  0  0  0
   28.3000   27.7100   36.2400 N   0  0  0  0  0  0  0  0  0  0  0  0
   29.0500   27.9600   35.1500 C   0  0  0  0  0  0  0  0  0  0  0  0
   30.3400   28.4900   35.2600 C   0  0  0  0  0  0  0  0  0  0  0  0
   31.1100   28.8200   34.1400 C   0  0  0  0  0  0  0  0  0  0  0  0
   30.5200   28.6700   32.8800 C   0  0  0  0  0  0  0  0  0  0  0  0
   29.2900   28.0200   32.7700 C   0  0  0  0  0  0  0  0  0  0  0  0
   28.5200   27.7100   33.8900 C   0  0  0  0  0  0  0  0  0  0  0  0
   27.2700   27.0800   33.7600 C   0  0  0  0  0  0  0  0  0  0  0  0
   26.7500   26.8800   32.4900 N   0  0  0  0  0  0  0  0  0  0  0  0
   23.5417   25.0329   36.3397 C   0  0  0  0  0  0  0  0  0  0  0  0
   22.4741   25.3048   37.0367 N   0  0  0  0  0  0  0  0  0  0  0  0
   21.3664   24.4852   37.4267 C   0  0  0  0  0  0  0  0  0  0  0  0
   20.7726   23.6448   36.5899 C   0  0  0  0  0  0  0  0  0  0  0  0
   19.4562   22.9355   36.4793 C   0  0  0  0  0  0  0  0  0  0  0  0
   19.6953   22.4240   35.2077 O   0  0  0  0  0  0  0  0  0  0  0  0
   20.9587   23.0082   35.2444 C   0  0  0  0  0  0  0  0  0  0  0  0
   22.0341   21.9209   35.2697 C   0  0  0  0  0  0  0  0  0  0  0  0
   23.4000   22.4512   35.5483 C   0  0  0  0  0  0  0  0  0  0  0  0
   23.9460   23.6596   35.9595 C   0  0  0  0  0  0  0  0  0  0  0  0
   25.2303   23.0401   35.8446 C   0  0  0  0  0  0  0  0  0  0  0  0
   24.7121   21.8053   35.4608 N   0  0  0  0  0  0  0  0  0  0  0  0
   25.2270   20.4965   35.0982 C   0  0  0  0  0  0  0  0  0  0  0  0
   24.5292   26.8522   36.8529 H   0  0  0  0  0  0  0  0  0  0  0  0
   30.7583   28.6622   36.2440 H   0  0  0  0  0  0  0  0  0  0  0  0
   32.0994   29.2453   34.2469 H   0  0  0  0  0  0  0  0  0  0  0  0
   31.0716   28.9442   31.9898 H   0  0  0  0  0  0  0  0  0  0  0  0
   28.9437   27.8129   31.7669 H   0  0  0  0  0  0  0  0  0  0  0  0
   26.3613   25.9529   32.2114 H   0  0  0  0  0  0  0  0  0  0  0  0
   26.7158   27.6565   31.7924 H   0  0  0  0  0  0  0  0  0  0  0  0
   20.8232   24.7639   38.3191 H   0  0  0  0  0  0  0  0  0  0  0  0
   19.3530   22.1253   37.2325 H   0  0  0  0  0  0  0  0  0  0  0  0
   18.5996   23.6439   36.4750 H   0  0  0  0  0  0  0  0  0  0  0  0
   21.0949   23.7521   34.4257 H   0  0  0  0  0  0  0  0  0  0  0  0
   22.0509   21.4112   34.2816 H   0  0  0  0  0  0  0  0  0  0  0  0
   21.7934   21.1579   36.0430 H   0  0  0  0  0  0  0  0  0  0  0  0
   25.8548   23.4800   35.0364 H   0  0  0  0  0  0  0  0  0  0  0  0
   25.7527   22.9751   36.8242 H   0  0  0  0  0  0  0  0  0  0  0  0
   24.8486   19.7383   35.8139 H   0  0  0  0  0  0  0  0  0  0  0  0
   26.3343   20.5086   35.1277 H   0  0  0  0  0  0  0  0  0  0  0  0
   24.8899   20.2372   34.0724 H   0  0  0  0  0  0  0  0  0  0  0  0
  1  2  1  0
  2  3  2  0
  2  4  1  0
  4  5  2  0
  5  6  1  0
  6  7  2  0
  7  8  1  0
  8  9  2  0
  9 10  1  0
 10 11  2  0
 11 12  1  0
 12 13  2  0
 13 14  1  0
  1 15  1  0
 15 16  2  0
 16 17  1  0
 17 18  2  0
 18 19  1  0
 19 20  1  0
 20 21  1  0
 21 22  1  0
 22 23  1  0
 23 24  2  0
 24 25  1  0
 25 26  1  0
 26 27  1  0
 13  4  1  0
 24 15  1  0
 12  7  1  0
 21 18  1  0
 26 23  1  0
  1 28  1  0
  8 29  1  0
  9 30  1  0
 10 31  1  0
 11 32  1  0
 14 33  1  0
 14 34  1  0
 17 35  1  0
 19 36  1  0
 19 37  1  0
 21 38  1  0
 22 39  1  0
 22 40  1  0
 25 41  1  0
 25 42  1  0
 27 43  1  0
 27 44  1  0
 27 45  1  0
M  END
$$$$
confid_8
     RDKit          3D

 45 49  0  0  0  0  0  0  0  0999 V2000
   24.4800   26.1000   36.1300 N   0  0  0  0  0  0  0  0  0  0  0  0
   25.2500   26.2500   34.9900 C   0  0  0  0  0  0  0  0  0  0  0  0
   24.7400   25.7600   33.9900 O   0  0  0  0  0  0  0  0  0  0  0  0
   26.5900   26.8900   34.9600 C   0  0  0  0  0  0  0  0  0  0  0  0
   27.0600   27.2400   36.1600 N   0  0  0  0  0  0  0  0  0  0  0  0
   28.3000   27.7100   36.2400 N   0  0  0  0  0  0  0  0  0  0  0  0
   29.0500   27.9600   35.1500 C   0  0  0  0  0  0  0  0  0  0  0  0
   30.3400   28.4900   35.2600 C   0  0  0  0  0  0  0  0  0  0  0  0
   31.1100   28.8200   34.1400 C   0  0  0  0  0  0  0  0  0  0  0  0
   30.5200   28.6700   32.8800 C   0  0  0  0  0  0  0  0  0  0  0  0
   29.2900   28.0200   32.7700 C   0  0  0  0  0  0  0  0  0  0  0  0
   28.5200   27.7100   33.8900 C   0  0  0  0  0  0  0  0  0  0  0  0
   27.2700   27.0800   33.7600 C   0  0  0  0  0  0  0  0  0  0  0  0
   26.7500   26.8800   32.4900 N   0  0  0  0  0  0  0  0  0  0  0  0
   23.4927   25.0715   36.3194 C   0  0  0  0  0  0  0  0  0  0  0  0
   22.4731   25.3516   37.0807 N   0  0  0  0  0  0  0  0  0  0  0  0
   21.3466   24.5510   37.4592 C   0  0  0  0  0  0  0  0  0  0  0  0
   20.6667   23.8245   36.5821 C   0  0  0  0  0  0  0  0  0  0  0  0
   19.3094   23.1950   36.4770 C   0  0  0  0  0  0  0  0  0  0  0  0
   19.4509   22.8164   35.1459 O   0  0  0  0  0  0  0  0  0  0  0  0
   20.7460   23.3289   35.1687 C   0  0  0  0  0  0  0  0  0  0  0  0
   21.7553   22.1906   35.0036 C   0  0  0  0  0  0  0  0  0  0  0  0
   23.1575   22.5784   35.3392 C   0  0  0  0  0  0  0  0  0  0  0  0
   23.7973   23.7014   35.8461 C   0  0  0  0  0  0  0  0  0  0  0  0
   25.0265   22.9834   35.7031 C   0  0  0  0  0  0  0  0  0  0  0  0
   24.4116   21.8305   35.2176 N   0  0  0  0  0  0  0  0  0  0  0  0
   24.8179   20.5080   34.7765 C   0  0  0  0  0  0  0  0  0  0  0  0
   24.5716   26.8243   36.8777 H   0  0  0  0  0  0  0  0  0  0  0  0
   30.7582   28.6623   36.2441 H   0  0  0  0  0  0  0  0  0  0  0  0
   32.0994   29.2454   34.2469 H   0  0  0  0  0  0  0  0  0  0  0  0
   31.0715   28.9441   31.9898 H   0  0  0  0  0  0  0  0  0  0  0  0
   28.9437   27.8128   31.7669 H   0  0  0  0  0  0  0  0  0  0  0  0
   26.7158   27.6565   31.7924 H   0  0  0  0  0  0  0  0  0  0  0  0
   26.3614   25.9528   32.2114 H   0  0  0  0  0  0  0  0  0  0  0  0
   20.8695   24.7632   38.4061 H   0  0  0  0  0  0  0  0  0  0  0  0
   18.4931   23.9402   36.5999 H   0  0  0  0  0  0  0  0  0  0  0  0
   19.2032   22.3117   37.1451 H   0  0  0  0  0  0  0  0  0  0  0  0
   20.8795   24.1514   34.4305 H   0  0  0  0  0  0  0  0  0  0  0  0
   21.4728   21.3320   35.6511 H   0  0  0  0  0  0  0  0  0  0  0  0
   21.7304   21.8409   33.9501 H   0  0  0  0  0  0  0  0  0  0  0  0
   25.5208   22.7969   36.6818 H   0  0  0  0  0  0  0  0  0  0  0  0
   25.7054   23.4258   34.9415 H   0  0  0  0  0  0  0  0  0  0  0  0
   24.5122   20.3606   33.7201 H   0  0  0  0  0  0  0  0  0  0  0  0
   24.3300   19.7403   35.4117 H   0  0  0  0  0  0  0  0  0  0  0  0
   25.9201   20.4075   34.8582 H   0  0  0  0  0  0  0  0  0  0  0  0
  1  2  1  0
  2  3  2  0
  2  4  1  0
  4  5  2  0
  5  6  1  0
  6  7  2  0
  7  8  1  0
  8  9  2  0
  9 10  1  0
 10 11  2  0
 11 12  1  0
 12 13  2  0
 13 14  1  0
  1 15  1  0
 15 16  2  0
 16 17  1  0
 17 18  2  0
 18 19  1  0
 19 20  1  0
 20 21  1  0
 21 22  1  0
 22 23  1  0
 23 24  2  0
 24 25  1  0
 25 26  1  0
 26 27  1  0
 13  4  1  0
 24 15  1  0
 12  7  1  0
 21 18  1  0
 26 23  1  0
  1 28  1  0
  8 29  1  0
  9 30  1  0
 10 31  1  0
 11 32  1  0
 14 33  1  0
 14 34  1  0
 17 35  1  0
 19 36  1  0
 19 37  1  0
 21 38  1  0
 22 39  1  0
 22 40  1  0
 25 41  1  0
 25 42  1  0
 27 43  1  0
 27 44  1  0
 27 45  1  0
M  END
$$$$
confid_9
     RDKit          3D

 45 49  0  0  0  0  0  0  0  0999 V2000
   24.4800   26.1000   36.1300 N   0  0  0  0  0  0  0  0  0  0  0  0
   25.2500   26.2500   34.9900 C   0  0  0  0  0  0  0  0  0  0  0  0
   24.7400   25.7600   33.9900 O   0  0  0  0  0  0  0  0  0  0  0  0
   26.5900   26.8900   34.9600 C   0  0  0  0  0  0  0  0  0  0  0  0
   27.0600   27.2400   36.1600 N   0  0  0  0  0  0  0  0  0  0  0  0
   28.3000   27.7100   36.2400 N   0  0  0  0  0  0  0  0  0  0  0  0
   29.0500   27.9600   35.1500 C   0  0  0  0  0  0  0  0  0  0  0  0
   30.3400   28.4900   35.2600 C   0  0  0  0  0  0  0  0  0  0  0  0
   31.1100   28.8200   34.1400 C   0  0  0  0  0  0  0  0  0  0  0  0
   30.5200   28.6700   32.8800 C   0  0  0  0  0  0  0  0  0  0  0  0
   29.2900   28.0200   32.7700 C   0  0  0  0  0  0  0  0  0  0  0  0
   28.5200   27.7100   33.8900 C   0  0  0  0  0  0  0  0  0  0  0  0
   27.2700   27.0800   33.7600 C   0  0  0  0  0  0  0  0  0  0  0  0
   26.7500   26.8800   32.4900 N   0  0  0  0  0  0  0  0  0  0  0  0
   23.3375   25.2337   36.2399 C   0  0  0  0  0  0  0  0  0  0  0  0
   22.3182   25.6720   36.9218 N   0  0  0  0  0  0  0  0  0  0  0  0
   21.0441   25.0801   37.2036 C   0  0  0  0  0  0  0  0  0  0  0  0
   20.3294   24.4537   36.2792 C   0  0  0  0  0  0  0  0  0  0  0  0
   18.8977   24.0619   36.0564 C   0  0  0  0  0  0  0  0  0  0  0  0
   19.0970   23.5982   34.7607 O   0  0  0  0  0  0  0  0  0  0  0  0
   20.4523   23.8888   34.8970 C   0  0  0  0  0  0  0  0  0  0  0  0
   21.2676   22.5980   34.8743 C   0  0  0  0  0  0  0  0  0  0  0  0
   22.7014   22.8056   35.2328 C   0  0  0  0  0  0  0  0  0  0  0  0
   23.4673   23.8355   35.7642 C   0  0  0  0  0  0  0  0  0  0  0  0
   24.6004   22.9715   35.6300 C   0  0  0  0  0  0  0  0  0  0  0  0
   23.8570   21.9144   35.1076 N   0  0  0  0  0  0  0  0  0  0  0  0
   24.1060   20.5741   34.6102 C   0  0  0  0  0  0  0  0  0  0  0  0
   24.6549   26.7562   36.9245 H   0  0  0  0  0  0  0  0  0  0  0  0
   30.7584   28.6623   36.2440 H   0  0  0  0  0  0  0  0  0  0  0  0
   32.0995   29.2458   34.2467 H   0  0  0  0  0  0  0  0  0  0  0  0
   31.0718   28.9438   31.9897 H   0  0  0  0  0  0  0  0  0  0  0  0
   28.9443   27.8130   31.7667 H   0  0  0  0  0  0  0  0  0  0  0  0
   26.7174   27.6559   31.7919 H   0  0  0  0  0  0  0  0  0  0  0  0
   26.3592   25.9538   32.2119 H   0  0  0  0  0  0  0  0  0  0  0  0
   20.5248   25.4045   38.0951 H   0  0  0  0  0  0  0  0  0  0  0  0
   18.5716   23.2467   36.7400 H   0  0  0  0  0  0  0  0  0  0  0  0
   18.2167   24.9424   36.0671 H   0  0  0  0  0  0  0  0  0  0  0  0
   20.7906   24.6405   34.1494 H   0  0  0  0  0  0  0  0  0  0  0  0
   20.8358   21.8538   35.5780 H   0  0  0  0  0  0  0  0  0  0  0  0
   21.2210   22.1652   33.8533 H   0  0  0  0  0  0  0  0  0  0  0  0
   25.3450   23.3410   34.8917 H   0  0  0  0  0  0  0  0  0  0  0  0
   25.0468   22.7070   36.6150 H   0  0  0  0  0  0  0  0  0  0  0  0
   25.1903   20.3457   34.6751 H   0  0  0  0  0  0  0  0  0  0  0  0
   23.5357   19.8418   35.2181 H   0  0  0  0  0  0  0  0  0  0  0  0
   23.7778   20.5114   33.5534 H   0  0  0  0  0  0  0  0  0  0  0  0
  1  2  1  0
  2  3  2  0
  2  4  1  0
  4  5  2  0
  5  6  1  0
  6  7  2  0
  7  8  1  0
  8  9  2  0
  9 10  1  0
 10 11  2  0
 11 12  1  0
 12 13  2  0
 13 14  1  0
  1 15  1  0
 15 16  2  0
 16 17  1  0
 17 18  2  0
 18 19  1  0
 19 20  1  0
 20 21  1  0
 21 22  1  0
 22 23  1  0
 23 24  2  0
 24 25  1  0
 25 26  1  0
 26 27  1  0
 13  4  1  0
 24 15  1  0
 12  7  1  0
 21 18  1  0
 26 23  1  0
  1 28  1  0
  8 29  1  0
  9 30  1  0
 10 31  1  0
 11 32  1  0
 14 33  1  0
 14 34  1  0
 17 35  1  0
 19 36  1  0
 19 37  1  0
 21 38  1  0
 22 39  1  0
 22 40  1  0
 25 41  1  0
 25 42  1  0
 27 43  1  0
 27 44  1  0
 27 45  1  0
M  END
$$$$
