confid_0
     RDKit          3D

 50 53  0  0  0  0  0  0  0  0999 V2000
   24.2000   26.2400   35.6900 N   0  0  0  0  0  0  0  0  0  0  0  0
   24.8500   26.2800   34.4800 C   0  0  0  0  0  0  0  0  0  0  0  0
   24.3100   25.7400   33.5400 O   0  0  0  0  0  0  0  0  0  0  0  0
   26.1800   26.9700   34.4700 C   0  0  0  0  0  0  0  0  0  0  0  0
   26.6500   27.6000   35.5500 N   0  0  0  0  0  0  0  0  0  0  0  0
   27.7900   28.2700   35.6200 N   0  0  0  0  0  0  0  0  0  0  0  0
   28.5400   28.3000   34.5100 C   0  0  0  0  0  0  0  0  0  0  0  0
   29.7700   28.9400   34.5600 C   0  0  0  0  0  0  0  0  0  0  0  0
   30.7000   28.8900   33.5000 C   0  0  0  0  0  0  0  0  0  0  0  0
   30.3700   28.1400   32.3700 C   0  0  0  0  0  0  0  0  0  0  0  0
   29.1200   27.5200   32.2800 C   0  0  0  0  0  0  0  0  0  0  0  0
   28.2100   27.6100   33.3300 C   0  0  0  0  0  0  0  0  0  0  0  0
   26.9700   26.9700   33.3100 C   0  0  0  0  0  0  0  0  0  0  0  0
   26.5300   26.2400   32.2200 N   0  0  0  0  0  0  0  0  0  0  0  0
   30.1422   29.6760   35.7380 N   0  0  0  0  0  0  0  0  0  0  0  0
   30.6511   28.9351   36.8972 C   0  0  0  0  0  0  0  0  0  0  0  0
   31.7382   29.7449   37.5970 C   0  0  0  0  0  0  0  0  0  0  0  0
   31.2268   31.0795   37.9345 N   0  0  0  0  0  0  0  0  0  0  0  0
   31.4542   31.6336   39.2741 C   0  0  0  0  0  0  0  0  0  0  0  0
   30.4728   31.8064   36.9351 C   0  0  0  0  0  0  0  0  0  0  0  0
   30.2587   33.1930   37.0415 C   0  0  0  0  0  0  0  0  0  0  0  0
   29.5301   33.8863   36.0639 C   0  0  0  0  0  0  0  0  0  0  0  0
   29.3243   35.3709   36.1902 C   0  0  0  0  0  0  0  0  0  0  0  0
   29.0117   33.1957   34.9556 C   0  0  0  0  0  0  0  0  0  0  0  0
   29.2211   31.8091   34.8471 C   0  0  0  0  0  0  0  0  0  0  0  0
   29.9435   31.1070   35.8303 C   0  0  0  0  0  0  0  0  0  0  0  0
   28.2941   33.9156   33.9846 O   0  0  0  0  0  0  0  0  0  0  0  0
   27.7127   33.3435   32.8174 C   0  0  0  0  0  0  0  0  0  0  0  0
   23.2686   25.7728   35.7696 H   0  0  0  0  0  0  0  0  0  0  0  0
   24.5982   26.6551   36.5614 H   0  0  0  0  0  0  0  0  0  0  0  0
   31.6570   29.3917   33.5703 H   0  0  0  0  0  0  0  0  0  0  0  0
   31.0734   28.0607   31.5512 H   0  0  0  0  0  0  0  0  0  0  0  0
   28.8952   26.9547   31.3854 H   0  0  0  0  0  0  0  0  0  0  0  0
   26.6256   26.6236   31.2537 H   0  0  0  0  0  0  0  0  0  0  0  0
   26.3246   25.2202   32.3140 H   0  0  0  0  0  0  0  0  0  0  0  0
   29.8167   28.7431   37.6057 H   0  0  0  0  0  0  0  0  0  0  0  0
   31.0761   27.9572   36.5801 H   0  0  0  0  0  0  0  0  0  0  0  0
   32.6089   29.8529   36.9141 H   0  0  0  0  0  0  0  0  0  0  0  0
   32.0759   29.1937   38.5010 H   0  0  0  0  0  0  0  0  0  0  0  0
   30.4866   31.9432   39.7226 H   0  0  0  0  0  0  0  0  0  0  0  0
   32.1343   32.5083   39.2094 H   0  0  0  0  0  0  0  0  0  0  0  0
   31.9235   30.8896   39.9512 H   0  0  0  0  0  0  0  0  0  0  0  0
   30.6644   33.7435   37.8791 H   0  0  0  0  0  0  0  0  0  0  0  0
   28.2408   35.6071   36.1332 H   0  0  0  0  0  0  0  0  0  0  0  0
   29.8560   35.8908   35.3654 H   0  0  0  0  0  0  0  0  0  0  0  0
   29.7110   35.7590   37.1563 H   0  0  0  0  0  0  0  0  0  0  0  0
   28.8135   31.2739   34.0022 H   0  0  0  0  0  0  0  0  0  0  0  0
   27.2082   34.1418   32.2356 H   0  0  0  0  0  0  0  0  0  0  0  0
   28.5010   32.8850   32.1832 H   0  0  0  0  0  0  0  0  0  0  0  0
   26.9573   32.5804   33.1015 H   0  0  0  0  0  0  0  0  0  0  0  0
  1  2  1  0
  2  3  2  0
  2  4  1  0
  4  5  2  0
  5  6  1  0
  6  7  2  0
  7  8  1  0
  8  9  2  0
  9 10  1  0
 10 11  2  0
 11 12  1  0
 12 13  2  0
 13 14  1  0
  8 15  1  0
 15 16  1  0
 16 17  1  0
 17 18  1  0
 18 19  1  0
 18 20  1  0
 20 21  2  0
 21 22  1  0
 22 23  1  0
 22 24  2  0
 24 25  1  0
 25 26  2  0
 24 27  1  0
 27 28  1  0
 13  4  1  0
 26 15  1  0
 12  7  1  0
 26 20  1  0
  1 29  1  0
  1 30  1  0
  9 31  1  0
 10 32  1  0
 11 33  1  0
 14 34  1  0
 14 35  1  0
 16 36  1  0
 16 37  1  0
 17 38  1  0
 17 39  1  0
 19 40  1  0
 19 41  1  0
 19 42  1  0
 21 43  1  0
 23 44  1  0
 23 45  1  0
 23 46  1  0
 25 47  1  0
 28 48  1  0
 28 49  1  0
 28 50  1  0
M  END
$$$$
confid_1
     RDKit          3D

 50 53  0  0  0  0  0  0  0  0999 V2000
   24.2000   26.2400   35.6900 N   0  0  0  0  0  0  0  0  0  0  0  0
   24.8500   26.2800   34.4800 C   0  0  0  0  0  0  0  0  0  0  0  0
   24.3100   25.7400   33.5400 O   0  0  0  0  0  0  0  0  0  0  0  0
   26.1800   26.9700   34.4700 C   0  0  0  0  0  0  0  0  0  0  0  0
   26.6500   27.6000   35.5500 N   0  0  0  0  0  0  0  0  0  0  0  0
   27.7900   28.2700   35.6200 N   0  0  0  0  0  0  0  0  0  0  0  0
   28.5400   28.3000   34.5100 C   0  0  0  0  0  0  0  0  0  0  0  0
   29.7700   28.9400   34.5600 C   0  0  0  0  0  0  0  0  0  0  0  0
   30.7000   28.8900   33.5000 C   0  0  0  0  0  0  0  0  0  0  0  0
   30.3700   28.1400   32.3700 C   0  0  0  0  0  0  0  0  0  0  0  0
   29.1200   27.5200   32.2800 C   0  0  0  0  0  0  0  0  0  0  0  0
   28.2100   27.6100   33.3300 C   0  0  0  0  0  0  0  0  0  0  0  0
   26.9700   26.9700   33.3100 C   0  0  0  0  0  0  0  0  0  0  0  0
   26.5300   26.2400   32.2200 N   0  0  0  0  0  0  0  0  0  0  0  0
   30.1373   29.6805   35.7416 N   0  0  0  0  0  0  0  0  0  0  0  0
   31.3262   29.2627   36.4927 C   0  0  0  0  0  0  0  0  0  0  0  0
   31.0742   29.4195   37.9888 C   0  0  0  0  0  0  0  0  0  0  0  0
   30.6665   30.7989   38.2824 N   0  0  0  0  0  0  0  0  0  0  0  0
   31.2936   31.5287   39.3912 C   0  0  0  0  0  0  0  0  0  0  0  0
   29.6877   31.4302   37.4234 C   0  0  0  0  0  0  0  0  0  0  0  0
   29.0008   32.5901   37.8243 C   0  0  0  0  0  0  0  0  0  0  0  0
   28.0597   33.1976   36.9804 C   0  0  0  0  0  0  0  0  0  0  0  0
   27.3359   34.4373   37.4279 C   0  0  0  0  0  0  0  0  0  0  0  0
   27.7977   32.6493   35.7138 C   0  0  0  0  0  0  0  0  0  0  0  0
   28.4875   31.4938   35.3064 C   0  0  0  0  0  0  0  0  0  0  0  0
   29.4231   30.8721   36.1544 C   0  0  0  0  0  0  0  0  0  0  0  0
   26.8494   33.2762   34.8877 O   0  0  0  0  0  0  0  0  0  0  0  0
   26.4716   32.8155   33.5940 C   0  0  0  0  0  0  0  0  0  0  0  0
   24.6001   26.6513   36.5622 H   0  0  0  0  0  0  0  0  0  0  0  0
   23.2669   25.7762   35.7689 H   0  0  0  0  0  0  0  0  0  0  0  0
   31.6555   29.3951   33.5651 H   0  0  0  0  0  0  0  0  0  0  0  0
   31.0729   28.0617   31.5507 H   0  0  0  0  0  0  0  0  0  0  0  0
   28.8951   26.9548   31.3854 H   0  0  0  0  0  0  0  0  0  0  0  0
   26.6264   26.6232   31.2536 H   0  0  0  0  0  0  0  0  0  0  0  0
   26.3241   25.2204   32.3141 H   0  0  0  0  0  0  0  0  0  0  0  0
   32.1913   29.8916   36.1908 H   0  0  0  0  0  0  0  0  0  0  0  0
   31.5718   28.1992   36.2786 H   0  0  0  0  0  0  0  0  0  0  0  0
   30.2604   28.7274   38.2952 H   0  0  0  0  0  0  0  0  0  0  0  0
   31.9933   29.1357   38.5440 H   0  0  0  0  0  0  0  0  0  0  0  0
   31.7113   32.4893   39.0214 H   0  0  0  0  0  0  0  0  0  0  0  0
   30.5430   31.7276   40.1846 H   0  0  0  0  0  0  0  0  0  0  0  0
   32.1227   30.9483   39.8463 H   0  0  0  0  0  0  0  0  0  0  0  0
   29.1864   33.0229   38.7974 H   0  0  0  0  0  0  0  0  0  0  0  0
   26.2417   34.2469   37.4455 H   0  0  0  0  0  0  0  0  0  0  0  0
   27.5489   35.2681   36.7224 H   0  0  0  0  0  0  0  0  0  0  0  0
   27.6514   34.7545   38.4445 H   0  0  0  0  0  0  0  0  0  0  0  0
   28.3038   31.0835   34.3246 H   0  0  0  0  0  0  0  0  0  0  0  0
   26.0497   31.7899   33.6616 H   0  0  0  0  0  0  0  0  0  0  0  0
   27.3491   32.8257   32.9135 H   0  0  0  0  0  0  0  0  0  0  0  0
   25.6956   33.4912   33.1813 H   0  0  0  0  0  0  0  0  0  0  0  0
  1  2  1  0
  2  3  2  0
  2  4  1  0
  4  5  2  0
  5  6  1  0
  6  7  2  0
  7  8  1  0
  8  9  2  0
  9 10  1  0
 10 11  2  0
 11 12  1  0
 12 13  2  0
 13 14  1  0
  8 15  1  0
 15 16  1  0
 16 17  1  0
 17 18  1  0
 18 19  1  0
 18 20  1  0
 20 21  2  0
 21 22  1  0
 22 23  1  0
 22 24  2  0
 24 25  1  0
 25 26  2  0
 24 27  1  0
 27 28  1  0
 13  4  1  0
 26 15  1  0
 12  7  1  0
 26 20  1  0
  1 29  1  0
  1 30  1  0
  9 31  1  0
 10 32  1  0
 11 33  1  0
 14 34  1  0
 14 35  1  0
 16 36  1  0
 16 37  1  0
 17 38  1  0
 17 39  1  0
 19 40  1  0
 19 41  1  0
 19 42  1  0
 21 43  1  0
 23 44  1  0
 23 45  1  0
 23 46  1  0
 25 47  1  0
 28 48  1  0
 28 49  1  0
 28 50  1  0
M  END
$$$$
confid_2
     RDKit          3D

 50 53  0  0  0  0  0  0  0  0999 V2000
   24.2000   26.2400   35.6900 N   0  0  0  0  0  0  0  0  0  0  0  0
   24.8500   26.2800   34.4800 C   0  0  0  0  0  0  0  0  0  0  0  0
   24.3100   25.7400   33.5400 O   0  0  0  0  0  0  0  0  0  0  0  0
   26.1800   26.9700   34.4700 C   0  0  0  0  0  0  0  0  0  0  0  0
   26.6500   27.6000   35.5500 N   0  0  0  0  0  0  0  0  0  0  0  0
   27.7900   28.2700   35.6200 N   0  0  0  0  0  0  0  0  0  0  0  0
   28.5400   28.3000   34.5100 C   0  0  0  0  0  0  0  0  0  0  0  0
   29.7700   28.9400   34.5600 C   0  0  0  0  0  0  0  0  0  0  0  0
   30.7000   28.8900   33.5000 C   0  0  0  0  0  0  0  0  0  0  0  0
   30.3700   28.1400   32.3700 C   0  0  0  0  0  0  0  0  0  0  0  0
   29.1200   27.5200   32.2800 C   0  0  0  0  0  0  0  0  0  0  0  0
   28.2100   27.6100   33.3300 C   0  0  0  0  0  0  0  0  0  0  0  0
   26.9700   26.9700   33.3100 C   0  0  0  0  0  0  0  0  0  0  0  0
   26.5300   26.2400   32.2200 N   0  0  0  0  0  0  0  0  0  0  0  0
   30.1433   29.6748   35.7417 N   0  0  0  0  0  0  0  0  0  0  0  0
   29.4056   30.8954   36.0846 C   0  0  0  0  0  0  0  0  0  0  0  0
   30.3822   31.9790   36.5310 C   0  0  0  0  0  0  0  0  0  0  0  0
   31.2149   31.4791   37.6329 N   0  0  0  0  0  0  0  0  0  0  0  0
   31.4467   32.3215   38.8119 C   0  0  0  0  0  0  0  0  0  0  0  0
   31.7629   30.1414   37.5417 C   0  0  0  0  0  0  0  0  0  0  0  0
   32.8085   29.7165   38.3821 C   0  0  0  0  0  0  0  0  0  0  0  0
   33.3281   28.4172   38.2850 C   0  0  0  0  0  0  0  0  0  0  0  0
   34.4456   27.9831   39.1929 C   0  0  0  0  0  0  0  0  0  0  0  0
   32.7944   27.5174   37.3471 C   0  0  0  0  0  0  0  0  0  0  0  0
   31.7467   27.9367   36.5082 C   0  0  0  0  0  0  0  0  0  0  0  0
   31.2318   29.2433   36.5922 C   0  0  0  0  0  0  0  0  0  0  0  0
   33.3254   26.2180   37.2772 O   0  0  0  0  0  0  0  0  0  0  0  0
   32.8837   25.2102   36.3732 C   0  0  0  0  0  0  0  0  0  0  0  0
   24.5989   26.6538   36.5617 H   0  0  0  0  0  0  0  0  0  0  0  0
   23.2681   25.7737   35.7694 H   0  0  0  0  0  0  0  0  0  0  0  0
   31.6572   29.3915   33.5690 H   0  0  0  0  0  0  0  0  0  0  0  0
   31.0736   28.0602   31.5515 H   0  0  0  0  0  0  0  0  0  0  0  0
   28.8953   26.9544   31.3856 H   0  0  0  0  0  0  0  0  0  0  0  0
   26.3242   25.2204   32.3142 H   0  0  0  0  0  0  0  0  0  0  0  0
   26.6264   26.6231   31.2536 H   0  0  0  0  0  0  0  0  0  0  0  0
   28.6921   30.6753   36.9078 H   0  0  0  0  0  0  0  0  0  0  0  0
   28.8290   31.2661   35.2082 H   0  0  0  0  0  0  0  0  0  0  0  0
   31.0389   32.2521   35.6767 H   0  0  0  0  0  0  0  0  0  0  0  0
   29.8086   32.8832   36.8280 H   0  0  0  0  0  0  0  0  0  0  0  0
   30.8503   33.2569   38.7715 H   0  0  0  0  0  0  0  0  0  0  0  0
   31.1574   31.7699   39.7313 H   0  0  0  0  0  0  0  0  0  0  0  0
   32.5181   32.6062   38.8668 H   0  0  0  0  0  0  0  0  0  0  0  0
   33.2308   30.3942   39.1111 H   0  0  0  0  0  0  0  0  0  0  0  0
   34.0977   27.1506   39.8401 H   0  0  0  0  0  0  0  0  0  0  0  0
   35.3084   27.6361   38.5861 H   0  0  0  0  0  0  0  0  0  0  0  0
   34.7923   28.8125   39.8453 H   0  0  0  0  0  0  0  0  0  0  0  0
   31.3203   27.2430   35.7985 H   0  0  0  0  0  0  0  0  0  0  0  0
   31.8141   24.9746   36.5566 H   0  0  0  0  0  0  0  0  0  0  0  0
   33.4822   24.2906   36.5356 H   0  0  0  0  0  0  0  0  0  0  0  0
   33.0279   25.5474   35.3249 H   0  0  0  0  0  0  0  0  0  0  0  0
  1  2  1  0
  2  3  2  0
  2  4  1  0
  4  5  2  0
  5  6  1  0
  6  7  2  0
  7  8  1  0
  8  9  2  0
  9 10  1  0
 10 11  2  0
 11 12  1  0
 12 13  2  0
 13 14  1  0
  8 15  1  0
 15 16  1  0
 16 17  1  0
 17 18  1  0
 18 19  1  0
 18 20  1  0
 20 21  2  0
 21 22  1  0
 22 23  1  0
 22 24  2  0
 24 25  1  0
 25 26  2  0
 24 27  1  0
 27 28  1  0
 13  4  1  0
 26 15  1  0
 12  7  1  0
 26 20  1  0
  1 29  1  0
  1 30  1  0
  9 31  1  0
 10 32  1  0
 11 33  1  0
 14 34  1  0
 14 35  1  0
 16 36  1  0
 16 37  1  0
 17 38  1  0
 17 39  1  0
 19 40  1  0
 19 41  1  0
 19 42  1  0
 21 43  1  0
 23 44  1  0
 23 45  1  0
 23 46  1  0
 25 47  1  0
 28 48  1  0
 28 49  1  0
 28 50  1  0
M  END
$$$$
confid_3
     RDKit          3D

 50 53  0  0  0  0  0  0  0  0999 V2000
   24.2000   26.2400   35.6900 N   0  0  0  0  0  0  0  0  0  0  0  0
   24.8500   26.2800   34.4800 C   0  0  0  0  0  0  0  0  0  0  0  0
   24.3100   25.7400   33.5400 O   0  0  0  0  0  0  0  0  0  0  0  0
   26.1800   26.9700   34.4700 C   0  0  0  0  0  0  0  0  0  0  0  0
   26.6500   27.6000   35.5500 N   0  0  0  0  0  0  0  0  0  0  0  0
   27.7900   28.2700   35.6200 N   0  0  0  0  0  0  0  0  0  0  0  0
   28.5400   28.3000   34.5100 C   0  0  0  0  0  0  0  0  0  0  0  0
   29.7700   28.9400   34.5600 C   0  0  0  0  0  0  0  0  0  0  0  0
   30.7000   28.8900   33.5000 C   0  0  0  0  0  0  0  0  0  0  0  0
   30.3700   28.1400   32.3700 C   0  0  0  0  0  0  0  0  0  0  0  0
   29.1200   27.5200   32.2800 C   0  0  0  0  0  0  0  0  0  0  0  0
   28.2100   27.6100   33.3300 C   0  0  0  0  0  0  0  0  0  0  0  0
   26.9700   26.9700   33.3100 C   0  0  0  0  0  0  0  0  0  0  0  0
   26.5300   26.2400   32.2200 N   0  0  0  0  0  0  0  0  0  0  0  0
   30.1453   29.6739   35.7395 N   0  0  0  0  0  0  0  0  0  0  0  0
   30.5550   28.9306   36.9360 C   0  0  0  0  0  0  0  0  0  0  0  0
   31.7251   29.6388   37.6118 C   0  0  0  0  0  0  0  0  0  0  0  0
   31.3695   31.0363   37.8882 N   0  0  0  0  0  0  0  0  0  0  0  0
   31.6562   31.6181   39.2045 C   0  0  0  0  0  0  0  0  0  0  0  0
   30.7056   31.8009   36.8537 C   0  0  0  0  0  0  0  0  0  0  0  0
   30.6494   33.2059   36.9006 C   0  0  0  0  0  0  0  0  0  0  0  0
   30.0075   33.9350   35.8888 C   0  0  0  0  0  0  0  0  0  0  0  0
   29.9629   35.4366   35.9548 C   0  0  0  0  0  0  0  0  0  0  0  0
   29.4090   33.2606   34.8113 C   0  0  0  0  0  0  0  0  0  0  0  0
   29.4602   31.8562   34.7626 C   0  0  0  0  0  0  0  0  0  0  0  0
   30.1043   31.1202   35.7745 C   0  0  0  0  0  0  0  0  0  0  0  0
   28.7723   34.0144   33.8104 O   0  0  0  0  0  0  0  0  0  0  0  0
   28.1287   33.4621   32.6664 C   0  0  0  0  0  0  0  0  0  0  0  0
   23.2690   25.7719   35.7698 H   0  0  0  0  0  0  0  0  0  0  0  0
   24.5980   26.6554   36.5614 H   0  0  0  0  0  0  0  0  0  0  0  0
   31.6568   29.3921   33.5697 H   0  0  0  0  0  0  0  0  0  0  0  0
   31.0710   28.0657   31.5487 H   0  0  0  0  0  0  0  0  0  0  0  0
   28.8854   26.9767   31.3745 H   0  0  0  0  0  0  0  0  0  0  0  0
   25.6757   26.5400   31.6997 H   0  0  0  0  0  0  0  0  0  0  0  0
   27.1524   25.5356   31.7657 H   0  0  0  0  0  0  0  0  0  0  0  0
   29.6995   28.8703   37.6426 H   0  0  0  0  0  0  0  0  0  0  0  0
   30.8640   27.8961   36.6679 H   0  0  0  0  0  0  0  0  0  0  0  0
   31.9930   29.0917   38.5411 H   0  0  0  0  0  0  0  0  0  0  0  0
   32.6051   29.6169   36.9333 H   0  0  0  0  0  0  0  0  0  0  0  0
   30.7305   32.0597   39.6307 H   0  0  0  0  0  0  0  0  0  0  0  0
   32.0310   30.8541   39.9174 H   0  0  0  0  0  0  0  0  0  0  0  0
   32.4355   32.4027   39.1078 H   0  0  0  0  0  0  0  0  0  0  0  0
   31.1125   33.7420   37.7177 H   0  0  0  0  0  0  0  0  0  0  0  0
   30.4742   35.8648   35.0670 H   0  0  0  0  0  0  0  0  0  0  0  0
   28.9068   35.7792   35.9669 H   0  0  0  0  0  0  0  0  0  0  0  0
   30.4645   35.8242   36.8670 H   0  0  0  0  0  0  0  0  0  0  0  0
   28.9891   31.3335   33.9433 H   0  0  0  0  0  0  0  0  0  0  0  0
   28.8589   32.8896   32.0563 H   0  0  0  0  0  0  0  0  0  0  0  0
   27.2912   32.8038   32.9800 H   0  0  0  0  0  0  0  0  0  0  0  0
   27.7191   34.2868   32.0480 H   0  0  0  0  0  0  0  0  0  0  0  0
  1  2  1  0
  2  3  2  0
  2  4  1  0
  4  5  2  0
  5  6  1  0
  6  7  2  0
  7  8  1  0
  8  9  2  0
  9 10  1  0
 10 11  2  0
 11 12  1  0
 12 13  2  0
 13 14  1  0
  8 15  1  0
 15 16  1  0
 16 17  1  0
 17 18  1  0
 18 19  1  0
 18 20  1  0
 20 21  2  0
 21 22  1  0
 22 23  1  0
 22 24  2  0
 24 25  1  0
 25 26  2  0
 24 27  1  0
 27 28  1  0
 13  4  1  0
 26 15  1  0
 12  7  1  0
 26 20  1  0
  1 29  1  0
  1 30  1  0
  9 31  1  0
 10 32  1  0
 11 33  1  0
 14 34  1  0
 14 35  1  0
 16 36  1  0
 16 37  1  0
 17 38  1  0
 17 39  1  0
 19 40  1  0
 19 41  1  0
 19 42  1  0
 21 43  1  0
 23 44  1  0
 23 45  1  0
 23 46  1  0
 25 47  1  0
 28 48  1  0
 28 49  1  0
 28 50  1  0
M  END
$$$$
confid_4
     RDKit          3D

 50 53  0  0  0  0  0  0  0  0999 V2000
   24.2000   26.2400   35.6900 N   0  0  0  0  0  0  0  0  0  0  0  0
   24.8500   26.2800   34.4800 C   0  0  0  0  0  0  0  0  0  0  0  0
   24.3100   25.7400   33.5400 O   0  0  0  0  0  0  0  0  0  0  0  0
   26.1800   26.9700   34.4700 C   0  0  0  0  0  0  0  0  0  0  0  0
   26.6500   27.6000   35.5500 N   0  0  0  0  0  0  0  0  0  0  0  0
   27.7900   28.2700   35.6200 N   0  0  0  0  0  0  0  0  0  0  0  0
   28.5400   28.3000   34.5100 C   0  0  0  0  0  0  0  0  0  0  0  0
   29.7700   28.9400   34.5600 C   0  0  0  0  0  0  0  0  0  0  0  0
   30.7000   28.8900   33.5000 C   0  0  0  0  0  0  0  0  0  0  0  0
   30.3700   28.1400   32.3700 C   0  0  0  0  0  0  0  0  0  0  0  0
   29.1200   27.5200   32.2800 C   0  0  0  0  0  0  0  0  0  0  0  0
   28.2100   27.6100   33.3300 C   0  0  0  0  0  0  0  0  0  0  0  0
   26.9700   26.9700   33.3100 C   0  0  0  0  0  0  0  0  0  0  0  0
   26.5300   26.2400   32.2200 N   0  0  0  0  0  0  0  0  0  0  0  0
   30.1432   29.6729   35.7396 N   0  0  0  0  0  0  0  0  0  0  0  0
   30.9094   28.9684   36.7735 C   0  0  0  0  0  0  0  0  0  0  0  0
   31.8224   29.9425   37.5105 C   0  0  0  0  0  0  0  0  0  0  0  0
   31.0331   31.0659   38.0277 N   0  0  0  0  0  0  0  0  0  0  0  0
   31.1875   31.4954   39.4220 C   0  0  0  0  0  0  0  0  0  0  0  0
   30.0796   31.7001   37.1446 C   0  0  0  0  0  0  0  0  0  0  0  0
   29.5856   32.9898   37.4057 C   0  0  0  0  0  0  0  0  0  0  0  0
   28.6721   33.6023   36.5347 C   0  0  0  0  0  0  0  0  0  0  0  0
   28.1851   34.9976   36.8206 C   0  0  0  0  0  0  0  0  0  0  0  0
   28.2632   32.9339   35.3680 C   0  0  0  0  0  0  0  0  0  0  0  0
   28.7533   31.6413   35.1054 C   0  0  0  0  0  0  0  0  0  0  0  0
   29.6494   31.0119   35.9908 C   0  0  0  0  0  0  0  0  0  0  0  0
   27.3725   33.5807   34.4936 O   0  0  0  0  0  0  0  0  0  0  0  0
   26.8772   33.0192   33.2816 C   0  0  0  0  0  0  0  0  0  0  0  0
   23.2653   25.7790   35.7681 H   0  0  0  0  0  0  0  0  0  0  0  0
   24.6027   26.6464   36.5636 H   0  0  0  0  0  0  0  0  0  0  0  0
   31.6566   29.3924   33.5698 H   0  0  0  0  0  0  0  0  0  0  0  0
   31.0710   28.0655   31.5487 H   0  0  0  0  0  0  0  0  0  0  0  0
   28.8854   26.9767   31.3745 H   0  0  0  0  0  0  0  0  0  0  0  0
   27.1525   25.5358   31.7655 H   0  0  0  0  0  0  0  0  0  0  0  0
   25.6756   26.5399   31.6999 H   0  0  0  0  0  0  0  0  0  0  0  0
   30.2057   28.5010   37.4948 H   0  0  0  0  0  0  0  0  0  0  0  0
   31.5306   28.1661   36.3191 H   0  0  0  0  0  0  0  0  0  0  0  0
   32.3518   29.4020   38.3246 H   0  0  0  0  0  0  0  0  0  0  0  0
   32.5863   30.3324   36.8030 H   0  0  0  0  0  0  0  0  0  0  0  0
   30.1941   31.5330   39.9168 H   0  0  0  0  0  0  0  0  0  0  0  0
   31.8294   30.7961   39.9968 H   0  0  0  0  0  0  0  0  0  0  0  0
   31.6609   32.4988   39.4565 H   0  0  0  0  0  0  0  0  0  0  0  0
   29.9176   33.5320   38.2802 H   0  0  0  0  0  0  0  0  0  0  0  0
   28.7105   35.7165   36.1580 H   0  0  0  0  0  0  0  0  0  0  0  0
   27.0916   35.0681   36.6415 H   0  0  0  0  0  0  0  0  0  0  0  0
   28.3723   35.2836   37.8762 H   0  0  0  0  0  0  0  0  0  0  0  0
   28.4354   31.1256   34.2120 H   0  0  0  0  0  0  0  0  0  0  0  0
   26.1955   33.7482   32.7982 H   0  0  0  0  0  0  0  0  0  0  0  0
   26.3088   32.0883   33.4949 H   0  0  0  0  0  0  0  0  0  0  0  0
   27.7185   32.8046   32.5874 H   0  0  0  0  0  0  0  0  0  0  0  0
  1  2  1  0
  2  3  2  0
  2  4  1  0
  4  5  2  0
  5  6  1  0
  6  7  2  0
  7  8  1  0
  8  9  2  0
  9 10  1  0
 10 11  2  0
 11 12  1  0
 12 13  2  0
 13 14  1  0
  8 15  1  0
 15 16  1  0
 16 17  1  0
 17 18  1  0
 18 19  1  0
 18 20  1  0
 20 21  2  0
 21 22  1  0
 22 23  1  0
 22 24  2  0
 24 25  1  0
 25 26  2  0
 24 27  1  0
 27 28  1  0
 13  4  1  0
 26 15  1  0
 12  7  1  0
 26 20  1  0
  1 29  1  0
  1 30  1  0
  9 31  1  0
 10 32  1  0
 11 33  1  0
 14 34  1  0
 14 35  1  0
 16 36  1  0
 16 37  1  0
 17 38  1  0
 17 39  1  0
 19 40  1  0
 19 41  1  0
 19 42  1  0
 21 43  1  0
 23 44  1  0
 23 45  1  0
 23 46  1  0
 25 47  1  0
 28 48  1  0
 28 49  1  0
 28 50  1  0
M  END
$$$$
confid_5
     RDKit          3D

 50 53  0  0  0  0  0  0  0  0999 V2000
   24.2000   26.2400   35.6900 N   0  0  0  0  0  0  0  0  0  0  0  0
   24.8500   26.2800   34.4800 C   0  0  0  0  0  0  0  0  0  0  0  0
   24.3100   25.7400   33.5400 O   0  0  0  0  0  0  0  0  0  0  0  0
   26.1800   26.9700   34.4700 C   0  0  0  0  0  0  0  0  0  0  0  0
   26.6500   27.6000   35.5500 N   0  0  0  0  0  0  0  0  0  0  0  0
   27.7900   28.2700   35.6200 N   0  0  0  0  0  0  0  0  0  0  0  0
   28.5400   28.3000   34.5100 C   0  0  0  0  0  0  0  0  0  0  0  0
   29.7700   28.9400   34.5600 C   0  0  0  0  0  0  0  0  0  0  0  0
   30.7000   28.8900   33.5000 C   0  0  0  0  0  0  0  0  0  0  0  0
   30.3700   28.1400   32.3700 C   0  0  0  0  0  0  0  0  0  0  0  0
   29.1200   27.5200   32.2800 C   0  0  0  0  0  0  0  0  0  0  0  0
   28.2100   27.6100   33.3300 C   0  0  0  0  0  0  0  0  0  0  0  0
   26.9700   26.9700   33.3100 C   0  0  0  0  0  0  0  0  0  0  0  0
   26.5300   26.2400   32.2200 N   0  0  0  0  0  0  0  0  0  0  0  0
   30.1486   29.6566   35.7502 N   0  0  0  0  0  0  0  0  0  0  0  0
   30.2810   31.1149   35.6763 C   0  0  0  0  0  0  0  0  0  0  0  0
   29.8018   31.7445   36.9805 C   0  0  0  0  0  0  0  0  0  0  0  0
   30.5238   31.1549   38.1152 N   0  0  0  0  0  0  0  0  0  0  0  0
   31.0686   32.0237   39.1649 C   0  0  0  0  0  0  0  0  0  0  0  0
   30.7109   29.7195   38.1511 C   0  0  0  0  0  0  0  0  0  0  0  0
   31.0833   29.0572   39.3354 C   0  0  0  0  0  0  0  0  0  0  0  0
   31.2660   27.6669   39.3565 C   0  0  0  0  0  0  0  0  0  0  0  0
   31.6433   26.9772   40.6385 C   0  0  0  0  0  0  0  0  0  0  0  0
   31.0704   26.9168   38.1849 C   0  0  0  0  0  0  0  0  0  0  0  0
   30.7071   27.5757   36.9972 C   0  0  0  0  0  0  0  0  0  0  0  0
   30.5196   28.9706   36.9709 C   0  0  0  0  0  0  0  0  0  0  0  0
   31.2447   25.5232   38.2356 O   0  0  0  0  0  0  0  0  0  0  0  0
   31.0609   24.6432   37.1310 C   0  0  0  0  0  0  0  0  0  0  0  0
   23.2677   25.7744   35.7692 H   0  0  0  0  0  0  0  0  0  0  0  0
   24.5996   26.6524   36.5620 H   0  0  0  0  0  0  0  0  0  0  0  0
   31.6604   29.3848   33.5719 H   0  0  0  0  0  0  0  0  0  0  0  0
   31.0742   28.0589   31.5521 H   0  0  0  0  0  0  0  0  0  0  0  0
   28.8955   26.9541   31.3858 H   0  0  0  0  0  0  0  0  0  0  0  0
   26.3241   25.2204   32.3142 H   0  0  0  0  0  0  0  0  0  0  0  0
   26.6266   26.6230   31.2536 H   0  0  0  0  0  0  0  0  0  0  0  0
   31.3462   31.3790   35.5014 H   0  0  0  0  0  0  0  0  0  0  0  0
   29.6740   31.5203   34.8365 H   0  0  0  0  0  0  0  0  0  0  0  0
   28.7146   31.5474   37.1022 H   0  0  0  0  0  0  0  0  0  0  0  0
   29.9490   32.8446   36.9273 H   0  0  0  0  0  0  0  0  0  0  0  0
   32.1512   31.8170   39.3004 H   0  0  0  0  0  0  0  0  0  0  0  0
   30.9542   33.0977   38.9089 H   0  0  0  0  0  0  0  0  0  0  0  0
   30.5306   31.8442   40.1189 H   0  0  0  0  0  0  0  0  0  0  0  0
   31.2241   29.6160   40.2504 H   0  0  0  0  0  0  0  0  0  0  0  0
   32.5418   26.3449   40.4768 H   0  0  0  0  0  0  0  0  0  0  0  0
   30.8025   26.3359   40.9763 H   0  0  0  0  0  0  0  0  0  0  0  0
   31.8769   27.7059   41.4438 H   0  0  0  0  0  0  0  0  0  0  0  0
   30.5752   27.0039   36.0907 H   0  0  0  0  0  0  0  0  0  0  0  0
   31.2579   23.6026   37.4606 H   0  0  0  0  0  0  0  0  0  0  0  0
   30.0153   24.7070   36.7616 H   0  0  0  0  0  0  0  0  0  0  0  0
   31.7718   24.8981   36.3167 H   0  0  0  0  0  0  0  0  0  0  0  0
  1  2  1  0
  2  3  2  0
  2  4  1  0
  4  5  2  0
  5  6  1  0
  6  7  2  0
  7  8  1  0
  8  9  2  0
  9 10  1  0
 10 11  2  0
 11 12  1  0
 12 13  2  0
 13 14  1  0
  8 15  1  0
 15 16  1  0
 16 17  1  0
 17 18  1  0
 18 19  1  0
 18 20  1  0
 20 21  2  0
 21 22  1  0
 22 23  1  0
 22 24  2  0
 24 25  1  0
 25 26  2  0
 24 27  1  0
 27 28  1  0
 13  4  1  0
 26 15  1  0
 12  7  1  0
 26 20  1  0
  1 29  1  0
  1 30  1  0
  9 31  1  0
 10 32  1  0
 11 33  1  0
 14 34  1  0
 14 35  1  0
 16 36  1  0
 16 37  1  0
 17 38  1  0
 17 39  1  0
 19 40  1  0
 19 41  1  0
 19 42  1  0
 21 43  1  0
 23 44  1  0
 23 45  1  0
 23 46  1  0
 25 47  1  0
 28 48  1  0
 28 49  1  0
 28 50  1  0
M  END
$$$$
confid_6
     RDKit          3D

 50 53  0  0  0  0  0  0  0  0999 V2000
   24.2000   26.2400   35.6900 N   0  0  0  0  0  0  0  0  0  0  0  0
   24.8500   26.2800   34.4800 C   0  0  0  0  0  0  0  0  0  0  0  0
   24.3100   25.7400   33.5400 O   0  0  0  0  0  0  0  0  0  0  0  0
   26.1800   26.9700   34.4700 C   0  0  0  0  0  0  0  0  0  0  0  0
   26.6500   27.6000   35.5500 N   0  0  0  0  0  0  0  0  0  0  0  0
   27.7900   28.2700   35.6200 N   0  0  0  0  0  0  0  0  0  0  0  0
   28.5400   28.3000   34.5100 C   0  0  0  0  0  0  0  0  0  0  0  0
   29.7700   28.9400   34.5600 C   0  0  0  0  0  0  0  0  0  0  0  0
   30.7000   28.8900   33.5000 C   0  0  0  0  0  0  0  0  0  0  0  0
   30.3700   28.1400   32.3700 C   0  0  0  0  0  0  0  0  0  0  0  0
   29.1200   27.5200   32.2800 C   0  0  0  0  0  0  0  0  0  0  0  0
   28.2100   27.6100   33.3300 C   0  0  0  0  0  0  0  0  0  0  0  0
   26.9700   26.9700   33.3100 C   0  0  0  0  0  0  0  0  0  0  0  0
   26.5300   26.2400   32.2200 N   0  0  0  0  0  0  0  0  0  0  0  0
   30.1662   29.6415   35.7564 N   0  0  0  0  0  0  0  0  0  0  0  0
   30.3916   28.8771   36.9911 C   0  0  0  0  0  0  0  0  0  0  0  0
   31.6702   29.3575   37.6715 C   0  0  0  0  0  0  0  0  0  0  0  0
   31.5957   30.8062   37.8979 N   0  0  0  0  0  0  0  0  0  0  0  0
   31.9167   31.3621   39.2170 C   0  0  0  0  0  0  0  0  0  0  0  0
   31.1246   31.6513   36.8201 C   0  0  0  0  0  0  0  0  0  0  0  0
   31.3609   33.0376   36.8210 C   0  0  0  0  0  0  0  0  0  0  0  0
   30.9017   33.8453   35.7694 C   0  0  0  0  0  0  0  0  0  0  0  0
   31.1748   35.3249   35.7822 C   0  0  0  0  0  0  0  0  0  0  0  0
   30.1829   33.2697   34.7079 C   0  0  0  0  0  0  0  0  0  0  0  0
   29.9349   31.8854   34.7090 C   0  0  0  0  0  0  0  0  0  0  0  0
   30.4114   31.0677   35.7514 C   0  0  0  0  0  0  0  0  0  0  0  0
   29.7284   34.1029   33.6687 O   0  0  0  0  0  0  0  0  0  0  0  0
   28.9431   33.6639   32.5628 C   0  0  0  0  0  0  0  0  0  0  0  0
   24.6088   26.6345   36.5663 H   0  0  0  0  0  0  0  0  0  0  0  0
   23.2675   25.7756   35.7686 H   0  0  0  0  0  0  0  0  0  0  0  0
   31.6606   29.3847   33.5716 H   0  0  0  0  0  0  0  0  0  0  0  0
   31.0721   28.0636   31.5497 H   0  0  0  0  0  0  0  0  0  0  0  0
   28.8845   26.9753   31.3754 H   0  0  0  0  0  0  0  0  0  0  0  0
   25.6771   26.5409   31.6977 H   0  0  0  0  0  0  0  0  0  0  0  0
   27.1502   25.5301   31.7709 H   0  0  0  0  0  0  0  0  0  0  0  0
   30.4839   27.7900   36.7714 H   0  0  0  0  0  0  0  0  0  0  0  0
   29.5300   29.0266   37.6773 H   0  0  0  0  0  0  0  0  0  0  0  0
   31.8059   28.7990   38.6220 H   0  0  0  0  0  0  0  0  0  0  0  0
   32.5407   29.1364   37.0156 H   0  0  0  0  0  0  0  0  0  0  0  0
   32.8275   31.9920   39.1504 H   0  0  0  0  0  0  0  0  0  0  0  0
   31.0643   31.9727   39.5832 H   0  0  0  0  0  0  0  0  0  0  0  0
   32.1122   30.5622   39.9613 H   0  0  0  0  0  0  0  0  0  0  0  0
   31.9140   33.4951   37.6298 H   0  0  0  0  0  0  0  0  0  0  0  0
   30.2132   35.8816   35.7991 H   0  0  0  0  0  0  0  0  0  0  0  0
   31.7693   35.6269   36.6712 H   0  0  0  0  0  0  0  0  0  0  0  0
   31.7440   35.6077   34.8705 H   0  0  0  0  0  0  0  0  0  0  0  0
   29.3694   31.4402   33.9033 H   0  0  0  0  0  0  0  0  0  0  0  0
   29.5184   32.9390   31.9509 H   0  0  0  0  0  0  0  0  0  0  0  0
   28.6821   34.5373   31.9321 H   0  0  0  0  0  0  0  0  0  0  0  0
   28.0029   33.1948   32.9273 H   0  0  0  0  0  0  0  0  0  0  0  0
  1  2  1  0
  2  3  2  0
  2  4  1  0
  4  5  2  0
  5  6  1  0
  6  7  2  0
  7  8  1  0
  8  9  2  0
  9 10  1  0
 10 11  2  0
 11 12  1  0
 12 13  2  0
 13 14  1  0
  8 15  1  0
 15 16  1  0
 16 17  1  0
 17 18  1  0
 18 19  1  0
 18 20  1  0
 20 21  2  0
 21 22  1  0
 22 23  1  0
 22 24  2  0
 24 25  1  0
 25 26  2  0
 24 27  1  0
 27 28  1  0
 13  4  1  0
 26 15  1  0
 12  7  1  0
 26 20  1  0
  1 29  1  0
  1 30  1  0
  9 31  1  0
 10 32  1  0
 11 33  1  0
 14 34  1  0
 14 35  1  0
 16 36  1  0
 16 37  1  0
 17 38  1  0
 17 39  1  0
 19 40  1  0
 19 41  1  0
 19 42  1  0
 21 43  1  0
 23 44  1  0
 23 45  1  0
 23 46  1  0
 25 47  1  0
 28 48  1  0
 28 49  1  0
 28 50  1  0
M  END
$$$$
confid_7
     RDKit          3D

 50 53  0  0  0  0  0  0  0  0999 V2000
   24.2000   26.2400   35.6900 N   0  0  0  0  0  0  0  0  0  0  0  0
   24.8500   26.2800   34.4800 C   0  0  0  0  0  0  0  0  0  0  0  0
   24.3100   25.7400   33.5400 O   0  0  0  0  0  0  0  0  0  0  0  0
   26.1800   26.9700   34.4700 C   0  0  0  0  0  0  0  0  0  0  0  0
   26.6500   27.6000   35.5500 N   0  0  0  0  0  0  0  0  0  0  0  0
   27.7900   28.2700   35.6200 N   0  0  0  0  0  0  0  0  0  0  0  0
   28.5400   28.3000   34.5100 C   0  0  0  0  0  0  0  0  0  0  0  0
   29.7700   28.9400   34.5600 C   0  0  0  0  0  0  0  0  0  0  0  0
   30.7000   28.8900   33.5000 C   0  0  0  0  0  0  0  0  0  0  0  0
   30.3700   28.1400   32.3700 C   0  0  0  0  0  0  0  0  0  0  0  0
   29.1200   27.5200   32.2800 C   0  0  0  0  0  0  0  0  0  0  0  0
   28.2100   27.6100   33.3300 C   0  0  0  0  0  0  0  0  0  0  0  0
   26.9700   26.9700   33.3100 C   0  0  0  0  0  0  0  0  0  0  0  0
   26.5300   26.2400   32.2200 N   0  0  0  0  0  0  0  0  0  0  0  0
   30.1319   29.6939   35.6909 N   0  0  0  0  0  0  0  0  0  0  0  0
   29.5809   31.0338   35.9119 C   0  0  0  0  0  0  0  0  0  0  0  0
   30.5829   32.0151   36.4147 C   0  0  0  0  0  0  0  0  0  0  0  0
   31.7399   31.4558   37.0392 N   0  0  0  0  0  0  0  0  0  0  0  0
   32.8513   32.3080   37.3790 C   0  0  0  0  0  0  0  0  0  0  0  0
   31.8166   30.0602   37.3345 C   0  0  0  0  0  0  0  0  0  0  0  0
   32.6654   29.5500   38.2904 C   0  0  0  0  0  0  0  0  0  0  0  0
   32.7174   28.2075   38.5715 C   0  0  0  0  0  0  0  0  0  0  0  0
   33.6589   27.7061   39.6244 C   0  0  0  0  0  0  0  0  0  0  0  0
   31.8969   27.2857   37.8883 C   0  0  0  0  0  0  0  0  0  0  0  0
   31.0278   27.8220   36.9049 C   0  0  0  0  0  0  0  0  0  0  0  0
   31.0213   29.1628   36.6710 C   0  0  0  0  0  0  0  0  0  0  0  0
   31.9530   26.0400   38.1634 O   0  0  0  0  0  0  0  0  0  0  0  0
   32.0098   24.7704   38.4435 C   0  0  0  0  0  0  0  0  0  0  0  0
   24.6456   25.7986   36.5267 H   0  0  0  0  0  0  0  0  0  0  0  0
   23.2513   26.6398   35.8258 H   0  0  0  0  0  0  0  0  0  0  0  0
   31.6343   29.3904   33.5172 H   0  0  0  0  0  0  0  0  0  0  0  0
   31.0662   28.0400   31.5828 H   0  0  0  0  0  0  0  0  0  0  0  0
   28.7945   26.9586   31.4320 H   0  0  0  0  0  0  0  0  0  0  0  0
   25.8909   26.6188   31.4631 H   0  0  0  0  0  0  0  0  0  0  0  0
   26.8294   25.2392   32.1007 H   0  0  0  0  0  0  0  0  0  0  0  0
   29.1171   31.4052   34.9730 H   0  0  0  0  0  0  0  0  0  0  0  0
   28.7564   30.8976   36.6469 H   0  0  0  0  0  0  0  0  0  0  0  0
   30.0608   32.6425   37.1913 H   0  0  0  0  0  0  0  0  0  0  0  0
   30.8298   32.7225   35.5936 H   0  0  0  0  0  0  0  0  0  0  0  0
   33.7984   31.7106   37.4399 H   0  0  0  0  0  0  0  0  0  0  0  0
   33.0352   33.0429   36.5628 H   0  0  0  0  0  0  0  0  0  0  0  0
   32.6909   32.9084   38.2946 H   0  0  0  0  0  0  0  0  0  0  0  0
   33.2996   30.2777   38.8168 H   0  0  0  0  0  0  0  0  0  0  0  0
   33.8910   28.5160   40.3562 H   0  0  0  0  0  0  0  0  0  0  0  0
   34.5761   27.3835   39.1323 H   0  0  0  0  0  0  0  0  0  0  0  0
   33.1833   26.8987   40.2345 H   0  0  0  0  0  0  0  0  0  0  0  0
   30.3800   27.1613   36.3439 H   0  0  0  0  0  0  0  0  0  0  0  0
   31.3419   24.3900   39.2762 H   0  0  0  0  0  0  0  0  0  0  0  0
   31.6907   24.1362   37.5662 H   0  0  0  0  0  0  0  0  0  0  0  0
   33.0493   24.3910   38.6698 H   0  0  0  0  0  0  0  0  0  0  0  0
  1  2  1  0
  2  3  2  0
  2  4  1  0
  4  5  2  0
  5  6  1  0
  6  7  2  0
  7  8  1  0
  8  9  2  0
  9 10  1  0
 10 11  2  0
 11 12  1  0
 12 13  2  0
 13 14  1  0
  8 15  1  0
 15 16  1  0
 16 17  1  0
 17 18  1  0
 18 19  1  0
 18 20  1  0
 20 21  2  0
 21 22  1  0
 22 23  1  0
 22 24  2  0
 24 25  1  0
 25 26  2  0
 24 27  1  0
 27 28  1  0
 13  4  1  0
 26 15  1  0
 12  7  1  0
 26 20  1  0
  1 29  1  0
  1 30  1  0
  9 31  1  0
 10 32  1  0
 11 33  1  0
 14 34  1  0
 14 35  1  0
 16 36  1  0
 16 37  1  0
 17 38  1  0
 17 39  1  0
 19 40  1  0
 19 41  1  0
 19 42  1  0
 21 43  1  0
 23 44  1  0
 23 45  1  0
 23 46  1  0
 25 47  1  0
 28 48  1  0
 28 49  1  0
 28 50  1  0
M  END
$$$$
confid_8
     RDKit          3D

 50 53  0  0  0  0  0  0  0  0999 V2000
   24.2000   26.2400   35.6900 N   0  0  0  0  0  0  0  0  0  0  0  0
   24.8500   26.2800   34.4800 C   0  0  0  0  0  0  0  0  0  0  0  0
   24.3100   25.7400   33.5400 O   0  0  0  0  0  0  0  0  0  0  0  0
   26.1800   26.9700   34.4700 C   0  0  0  0  0  0  0  0  0  0  0  0
   26.6500   27.6000   35.5500 N   0  0  0  0  0  0  0  0  0  0  0  0
   27.7900   28.2700   35.6200 N   0  0  0  0  0  0  0  0  0  0  0  0
   28.5400   28.3000   34.5100 C   0  0  0  0  0  0  0  0  0  0  0  0
   29.7700   28.9400   34.5600 C   0  0  0  0  0  0  0  0  0  0  0  0
   30.7000   28.8900   33.5000 C   0  0  0  0  0  0  0  0  0  0  0  0
   30.3700   28.1400   32.3700 C   0  0  0  0  0  0  0  0  0  0  0  0
   29.1200   27.5200   32.2800 C   0  0  0  0  0  0  0  0  0  0  0  0
   28.2100   27.6100   33.3300 C   0  0  0  0  0  0  0  0  0  0  0  0
   26.9700   26.9700   33.3100 C   0  0  0  0  0  0  0  0  0  0  0  0
   26.5300   26.2400   32.2200 N   0  0  0  0  0  0  0  0  0  0  0  0
   30.1422   29.6737   35.7391 N   0  0  0  0  0  0  0  0  0  0  0  0
   30.7723   28.9393   36.8413 C   0  0  0  0  0  0  0  0  0  0  0  0
   31.7445   29.8448   37.5917 C   0  0  0  0  0  0  0  0  0  0  0  0
   31.0564   31.0698   38.0164 N   0  0  0  0  0  0  0  0  0  0  0  0
   31.1809   31.5432   39.4000 C   0  0  0  0  0  0  0  0  0  0  0  0
   30.2240   31.7594   37.0558 C   0  0  0  0  0  0  0  0  0  0  0  0
   29.8573   33.1053   37.2369 C   0  0  0  0  0  0  0  0  0  0  0  0
   29.0612   33.7672   36.2915 C   0  0  0  0  0  0  0  0  0  0  0  0
   28.7059   35.2151   36.4933 C   0  0  0  0  0  0  0  0  0  0  0  0
   28.6381   33.0902   35.1350 C   0  0  0  0  0  0  0  0  0  0  0  0
   28.9986   31.7423   34.9533 C   0  0  0  0  0  0  0  0  0  0  0  0
   29.7819   31.0671   35.9088 C   0  0  0  0  0  0  0  0  0  0  0  0
   27.8635   33.7843   34.1893 O   0  0  0  0  0  0  0  0  0  0  0  0
   27.3722   33.2234   32.9758 C   0  0  0  0  0  0  0  0  0  0  0  0
   24.5987   26.6541   36.5616 H   0  0  0  0  0  0  0  0  0  0  0  0
   23.2679   25.7740   35.7694 H   0  0  0  0  0  0  0  0  0  0  0  0
   31.6565   29.3926   33.5699 H   0  0  0  0  0  0  0  0  0  0  0  0
   31.0711   28.0656   31.5488 H   0  0  0  0  0  0  0  0  0  0  0  0
   28.8855   26.9767   31.3744 H   0  0  0  0  0  0  0  0  0  0  0  0
   27.1525   25.5358   31.7655 H   0  0  0  0  0  0  0  0  0  0  0  0
   25.6756   26.5399   31.6998 H   0  0  0  0  0  0  0  0  0  0  0  0
   29.9861   28.5788   37.5388 H   0  0  0  0  0  0  0  0  0  0  0  0
   31.3285   28.0581   36.4525 H   0  0  0  0  0  0  0  0  0  0  0  0
   32.5844   30.1172   36.9161 H   0  0  0  0  0  0  0  0  0  0  0  0
   32.1658   29.2894   38.4567 H   0  0  0  0  0  0  0  0  0  0  0  0
   31.7247   30.8134   40.0354 H   0  0  0  0  0  0  0  0  0  0  0  0
   31.7454   32.4989   39.4224 H   0  0  0  0  0  0  0  0  0  0  0  0
   30.1724   31.6943   39.8378 H   0  0  0  0  0  0  0  0  0  0  0  0
   30.1998   33.6503   38.1061 H   0  0  0  0  0  0  0  0  0  0  0  0
   29.2841   35.8408   35.7801 H   0  0  0  0  0  0  0  0  0  0  0  0
   27.6193   35.3701   36.3173 H   0  0  0  0  0  0  0  0  0  0  0  0
   28.9341   35.5520   37.5280 H   0  0  0  0  0  0  0  0  0  0  0  0
   28.6666   31.2178   34.0694 H   0  0  0  0  0  0  0  0  0  0  0  0
   28.2187   32.8891   32.3390 H   0  0  0  0  0  0  0  0  0  0  0  0
   26.6965   32.3690   33.1953 H   0  0  0  0  0  0  0  0  0  0  0  0
   26.7985   33.9973   32.4256 H   0  0  0  0  0  0  0  0  0  0  0  0
  1  2  1  0
  2  3  2  0
  2  4  1  0
  4  5  2  0
  5  6  1  0
  6  7  2  0
  7  8  1  0
  8  9  2  0
  9 10  1  0
 10 11  2  0
 11 12  1  0
 12 13  2  0
 13 14  1  0
  8 15  1  0
 15 16  1  0
 16 17  1  0
 17 18  1  0
 18 19  1  0
 18 20  1  0
 20 21  2  0
 21 22  1  0
 22 23  1  0
 22 24  2  0
 24 25  1  0
 25 26  2  0
 24 27  1  0
 27 28  1  0
 13  4  1  0
 26 15  1  0
 12  7  1  0
 26 20  1  0
  1 29  1  0
  1 30  1  0
  9 31  1  0
 10 32  1  0
 11 33  1  0
 14 34  1  0
 14 35  1  0
 16 36  1  0
 16 37  1  0
 17 38  1  0
 17 39  1  0
 19 40  1  0
 19 41  1  0
 19 42  1  0
 21 43  1  0
 23 44  1  0
 23 45  1  0
 23 46  1  0
 25 47  1  0
 28 48  1  0
 28 49  1  0
 28 50  1  0
M  END
$$$$
