confid_0
     RDKit          3D

 46 49  0  0  0  0  0  0  0  0999 V2000
   24.6900   26.1200   35.5300 N   0  0  0  0  0  0  0  0  0  0  0  0
   25.6600   25.6700   34.6600 C   0  0  0  0  0  0  0  0  0  0  0  0
   25.2400   25.0100   33.7200 O   0  0  0  0  0  0  0  0  0  0  0  0
   27.0300   26.2200   34.8800 C   0  0  0  0  0  0  0  0  0  0  0  0
   27.3500   26.7300   36.0700 N   0  0  0  0  0  0  0  0  0  0  0  0
   28.5700   27.1800   36.3300 N   0  0  0  0  0  0  0  0  0  0  0  0
   29.5300   27.1100   35.3900 C   0  0  0  0  0  0  0  0  0  0  0  0
   30.8300   27.5700   35.6500 C   0  0  0  0  0  0  0  0  0  0  0  0
   31.8500   27.5400   34.6900 C   0  0  0  0  0  0  0  0  0  0  0  0
   31.5100   27.1200   33.4000 C   0  0  0  0  0  0  0  0  0  0  0  0
   30.2200   26.6300   33.1100 C   0  0  0  0  0  0  0  0  0  0  0  0
   29.2400   26.6600   34.1000 C   0  0  0  0  0  0  0  0  0  0  0  0
   27.9300   26.2600   33.8100 C   0  0  0  0  0  0  0  0  0  0  0  0
   27.5200   25.7100   32.6100 N   0  0  0  0  0  0  0  0  0  0  0  0
   31.1690   28.0947   36.9946 C   0  0  0  0  0  0  0  0  0  0  0  0
   30.6153   29.3302   37.3767 C   0  0  0  0  0  0  0  0  0  0  0  0
   30.9345   29.8612   38.6185 C   0  0  0  0  0  0  0  0  0  0  0  0
   30.4255   31.1438   39.2113 C   0  0  0  0  0  0  0  0  0  0  0  0
   31.0783   31.1863   40.5187 N   0  0  0  0  0  0  0  0  0  0  0  0
   31.8931   30.0299   40.6649 C   0  0  0  0  0  0  0  0  0  0  0  0
   32.5499   29.7625   41.7058 O   0  0  0  0  0  0  0  0  0  0  0  0
   31.8065   29.2132   39.4671 C   0  0  0  0  0  0  0  0  0  0  0  0
   32.4188   27.9963   39.1204 C   0  0  0  0  0  0  0  0  0  0  0  0
   33.3990   27.3452   40.0659 C   0  0  0  0  0  0  0  0  0  0  0  0
   32.0430   27.3932   37.8825 C   0  0  0  0  0  0  0  0  0  0  0  0
   32.5785   26.0286   37.5056 C   0  0  0  0  0  0  0  0  0  0  0  0
   30.9072   32.2341   41.5164 C   0  0  0  0  0  0  0  0  0  0  0  0
   23.6981   25.8078   35.4227 H   0  0  0  0  0  0  0  0  0  0  0  0
   24.8908   26.7906   36.3050 H   0  0  0  0  0  0  0  0  0  0  0  0
   32.8514   27.8897   34.9107 H   0  0  0  0  0  0  0  0  0  0  0  0
   32.2638   27.1267   32.6234 H   0  0  0  0  0  0  0  0  0  0  0  0
   30.0101   26.3034   32.1004 H   0  0  0  0  0  0  0  0  0  0  0  0
   28.1317   25.0435   32.0893 H   0  0  0  0  0  0  0  0  0  0  0  0
   26.6941   26.1028   32.1054 H   0  0  0  0  0  0  0  0  0  0  0  0
   29.9449   29.8675   36.7163 H   0  0  0  0  0  0  0  0  0  0  0  0
   30.7381   32.0128   38.5942 H   0  0  0  0  0  0  0  0  0  0  0  0
   29.3218   31.1091   39.3307 H   0  0  0  0  0  0  0  0  0  0  0  0
   34.0123   28.1081   40.5860 H   0  0  0  0  0  0  0  0  0  0  0  0
   32.8483   26.7388   40.8149 H   0  0  0  0  0  0  0  0  0  0  0  0
   34.1228   26.6995   39.5288 H   0  0  0  0  0  0  0  0  0  0  0  0
   31.9409   25.5214   36.7531 H   0  0  0  0  0  0  0  0  0  0  0  0
   33.6054   26.1312   37.0969 H   0  0  0  0  0  0  0  0  0  0  0  0
   32.5944   25.3564   38.3887 H   0  0  0  0  0  0  0  0  0  0  0  0
   30.4919   31.7973   42.4486 H   0  0  0  0  0  0  0  0  0  0  0  0
   30.2099   33.0125   41.1407 H   0  0  0  0  0  0  0  0  0  0  0  0
   31.8886   32.7042   41.7352 H   0  0  0  0  0  0  0  0  0  0  0  0
  1  2  1  0
  2  3  2  0
  2  4  1  0
  4  5  2  0
  5  6  1  0
  6  7  2  0
  7  8  1  0
  8  9  2  0
  9 10  1  0
 10 11  2  0
 11 12  1  0
 12 13  2  0
 13 14  1  0
  8 15  1  0
 15 16  2  0
 16 17  1  0
 17 18  1  0
 18 19  1  0
 19 20  1  0
 20 21  2  0
 20 22  1  0
 22 23  1  0
 23 24  1  0
 23 25  2  0
 25 26  1  0
 19 27  1  0
 13  4  1  0
 25 15  1  0
 12  7  1  0
 22 17  2  0
  1 28  1  0
  1 29  1  0
  9 30  1  0
 10 31  1  0
 11 32  1  0
 14 33  1  0
 14 34  1  0
 16 35  1  0
 18 36  1  0
 18 37  1  0
 24 38  1  0
 24 39  1  0
 24 40  1  0
 26 41  1  0
 26 42  1  0
 26 43  1  0
 27 44  1  0
 27 45  1  0
 27 46  1  0
M  END
$$$$
confid_1
     RDKit          3D

 46 49  0  0  0  0  0  0  0  0999 V2000
   24.6900   26.1200   35.5300 N   0  0  0  0  0  0  0  0  0  0  0  0
   25.6600   25.6700   34.6600 C   0  0  0  0  0  0  0  0  0  0  0  0
   25.2400   25.0100   33.7200 O   0  0  0  0  0  0  0  0  0  0  0  0
   27.0300   26.2200   34.8800 C   0  0  0  0  0  0  0  0  0  0  0  0
   27.3500   26.7300   36.0700 N   0  0  0  0  0  0  0  0  0  0  0  0
   28.5700   27.1800   36.3300 N   0  0  0  0  0  0  0  0  0  0  0  0
   29.5300   27.1100   35.3900 C   0  0  0  0  0  0  0  0  0  0  0  0
   30.8300   27.5700   35.6500 C   0  0  0  0  0  0  0  0  0  0  0  0
   31.8500   27.5400   34.6900 C   0  0  0  0  0  0  0  0  0  0  0  0
   31.5100   27.1200   33.4000 C   0  0  0  0  0  0  0  0  0  0  0  0
   30.2200   26.6300   33.1100 C   0  0  0  0  0  0  0  0  0  0  0  0
   29.2400   26.6600   34.1000 C   0  0  0  0  0  0  0  0  0  0  0  0
   27.9300   26.2600   33.8100 C   0  0  0  0  0  0  0  0  0  0  0  0
   27.5200   25.7100   32.6100 N   0  0  0  0  0  0  0  0  0  0  0  0
   31.1772   28.0697   37.0026 C   0  0  0  0  0  0  0  0  0  0  0  0
   31.1919   27.1448   38.0629 C   0  0  0  0  0  0  0  0  0  0  0  0
   31.5405   27.5768   39.3348 C   0  0  0  0  0  0  0  0  0  0  0  0
   31.5869   26.7516   40.5888 C   0  0  0  0  0  0  0  0  0  0  0  0
   32.0013   27.7172   41.6054 N   0  0  0  0  0  0  0  0  0  0  0  0
   32.1794   28.9867   40.9899 C   0  0  0  0  0  0  0  0  0  0  0  0
   32.4946   30.0320   41.6180 O   0  0  0  0  0  0  0  0  0  0  0  0
   31.9010   28.8867   39.5680 C   0  0  0  0  0  0  0  0  0  0  0  0
   31.9416   29.8436   38.5391 C   0  0  0  0  0  0  0  0  0  0  0  0
   32.3827   31.2565   38.8356 C   0  0  0  0  0  0  0  0  0  0  0  0
   31.5096   29.4400   37.2398 C   0  0  0  0  0  0  0  0  0  0  0  0
   31.4181   30.4523   36.1182 C   0  0  0  0  0  0  0  0  0  0  0  0
   32.1840   27.4289   43.0218 C   0  0  0  0  0  0  0  0  0  0  0  0
   23.6981   25.8078   35.4227 H   0  0  0  0  0  0  0  0  0  0  0  0
   24.8908   26.7904   36.3051 H   0  0  0  0  0  0  0  0  0  0  0  0
   32.8539   27.8807   34.9131 H   0  0  0  0  0  0  0  0  0  0  0  0
   32.2657   27.1198   32.6252 H   0  0  0  0  0  0  0  0  0  0  0  0
   30.0115   26.2783   32.1079 H   0  0  0  0  0  0  0  0  0  0  0  0
   27.3415   24.6832   32.5416 H   0  0  0  0  0  0  0  0  0  0  0  0
   27.6978   26.2229   31.7183 H   0  0  0  0  0  0  0  0  0  0  0  0
   30.9346   26.1053   37.8983 H   0  0  0  0  0  0  0  0  0  0  0  0
   32.3392   25.9396   40.4969 H   0  0  0  0  0  0  0  0  0  0  0  0
   30.5811   26.3456   40.8278 H   0  0  0  0  0  0  0  0  0  0  0  0
   32.8051   31.7530   37.9387 H   0  0  0  0  0  0  0  0  0  0  0  0
   31.5205   31.8454   39.2119 H   0  0  0  0  0  0  0  0  0  0  0  0
   33.1951   31.2665   39.5896 H   0  0  0  0  0  0  0  0  0  0  0  0
   30.7297   30.1241   35.3131 H   0  0  0  0  0  0  0  0  0  0  0  0
   32.4259   30.6198   35.6843 H   0  0  0  0  0  0  0  0  0  0  0  0
   31.0084   31.4141   36.4910 H   0  0  0  0  0  0  0  0  0  0  0  0
   31.9712   26.3584   43.2269 H   0  0  0  0  0  0  0  0  0  0  0  0
   33.2312   27.6511   43.3152 H   0  0  0  0  0  0  0  0  0  0  0  0
   31.4922   28.0557   43.6223 H   0  0  0  0  0  0  0  0  0  0  0  0
  1  2  1  0
  2  3  2  0
  2  4  1  0
  4  5  2  0
  5  6  1  0
  6  7  2  0
  7  8  1  0
  8  9  2  0
  9 10  1  0
 10 11  2  0
 11 12  1  0
 12 13  2  0
 13 14  1  0
  8 15  1  0
 15 16  2  0
 16 17  1  0
 17 18  1  0
 18 19  1  0
 19 20  1  0
 20 21  2  0
 20 22  1  0
 22 23  1  0
 23 24  1  0
 23 25  2  0
 25 26  1  0
 19 27  1  0
 13  4  1  0
 25 15  1  0
 12  7  1  0
 22 17  2  0
  1 28  1  0
  1 29  1  0
  9 30  1  0
 10 31  1  0
 11 32  1  0
 14 33  1  0
 14 34  1  0
 16 35  1  0
 18 36  1  0
 18 37  1  0
 24 38  1  0
 24 39  1  0
 24 40  1  0
 26 41  1  0
 26 42  1  0
 26 43  1  0
 27 44  1  0
 27 45  1  0
 27 46  1  0
M  END
$$$$
confid_2
     RDKit          3D

 46 49  0  0  0  0  0  0  0  0999 V2000
   24.6900   26.1200   35.5300 N   0  0  0  0  0  0  0  0  0  0  0  0
   25.6600   25.6700   34.6600 C   0  0  0  0  0  0  0  0  0  0  0  0
   25.2400   25.0100   33.7200 O   0  0  0  0  0  0  0  0  0  0  0  0
   27.0300   26.2200   34.8800 C   0  0  0  0  0  0  0  0  0  0  0  0
   27.3500   26.7300   36.0700 N   0  0  0  0  0  0  0  0  0  0  0  0
   28.5700   27.1800   36.3300 N   0  0  0  0  0  0  0  0  0  0  0  0
   29.5300   27.1100   35.3900 C   0  0  0  0  0  0  0  0  0  0  0  0
   30.8300   27.5700   35.6500 C   0  0  0  0  0  0  0  0  0  0  0  0
   31.8500   27.5400   34.6900 C   0  0  0  0  0  0  0  0  0  0  0  0
   31.5100   27.1200   33.4000 C   0  0  0  0  0  0  0  0  0  0  0  0
   30.2200   26.6300   33.1100 C   0  0  0  0  0  0  0  0  0  0  0  0
   29.2400   26.6600   34.1000 C   0  0  0  0  0  0  0  0  0  0  0  0
   27.9300   26.2600   33.8100 C   0  0  0  0  0  0  0  0  0  0  0  0
   27.5200   25.7100   32.6100 N   0  0  0  0  0  0  0  0  0  0  0  0
   31.1741   28.0790   36.9990 C   0  0  0  0  0  0  0  0  0  0  0  0
   31.4283   29.4558   37.1338 C   0  0  0  0  0  0  0  0  0  0  0  0
   31.7290   29.9700   38.3873 C   0  0  0  0  0  0  0  0  0  0  0  0
   32.0496   31.3976   38.7261 C   0  0  0  0  0  0  0  0  0  0  0  0
   32.2893   31.3502   40.1675 N   0  0  0  0  0  0  0  0  0  0  0  0
   32.1200   30.0124   40.6192 C   0  0  0  0  0  0  0  0  0  0  0  0
   32.3007   29.6467   41.8108 O   0  0  0  0  0  0  0  0  0  0  0  0
   31.7581   29.1587   39.5015 C   0  0  0  0  0  0  0  0  0  0  0  0
   31.4823   27.7823   39.4296 C   0  0  0  0  0  0  0  0  0  0  0  0
   31.4936   26.9419   40.6836 C   0  0  0  0  0  0  0  0  0  0  0  0
   31.2463   27.2190   38.1395 C   0  0  0  0  0  0  0  0  0  0  0  0
   31.0614   25.7247   37.9838 C   0  0  0  0  0  0  0  0  0  0  0  0
   32.6586   32.4861   41.0019 C   0  0  0  0  0  0  0  0  0  0  0  0
   23.6981   25.8078   35.4227 H   0  0  0  0  0  0  0  0  0  0  0  0
   24.8908   26.7903   36.3052 H   0  0  0  0  0  0  0  0  0  0  0  0
   32.8534   27.8823   34.9128 H   0  0  0  0  0  0  0  0  0  0  0  0
   32.2657   27.1199   32.6252 H   0  0  0  0  0  0  0  0  0  0  0  0
   30.0115   26.2782   32.1079 H   0  0  0  0  0  0  0  0  0  0  0  0
   27.3415   24.6831   32.5417 H   0  0  0  0  0  0  0  0  0  0  0  0
   27.6978   26.2229   31.7183 H   0  0  0  0  0  0  0  0  0  0  0  0
   31.3907   30.1152   36.2749 H   0  0  0  0  0  0  0  0  0  0  0  0
   32.9650   31.7307   38.1923 H   0  0  0  0  0  0  0  0  0  0  0  0
   31.1862   32.0584   38.4988 H   0  0  0  0  0  0  0  0  0  0  0  0
   31.0747   27.5074   41.5402 H   0  0  0  0  0  0  0  0  0  0  0  0
   30.8563   26.0404   40.5831 H   0  0  0  0  0  0  0  0  0  0  0  0
   32.5340   26.6335   40.9164 H   0  0  0  0  0  0  0  0  0  0  0  0
   31.2457   25.3834   36.9451 H   0  0  0  0  0  0  0  0  0  0  0  0
   30.0278   25.4441   38.2753 H   0  0  0  0  0  0  0  0  0  0  0  0
   31.7883   25.1744   38.6170 H   0  0  0  0  0  0  0  0  0  0  0  0
   31.8919   32.6338   41.7908 H   0  0  0  0  0  0  0  0  0  0  0  0
   32.7265   33.4085   40.3873 H   0  0  0  0  0  0  0  0  0  0  0  0
   33.6437   32.2955   41.4766 H   0  0  0  0  0  0  0  0  0  0  0  0
  1  2  1  0
  2  3  2  0
  2  4  1  0
  4  5  2  0
  5  6  1  0
  6  7  2  0
  7  8  1  0
  8  9  2  0
  9 10  1  0
 10 11  2  0
 11 12  1  0
 12 13  2  0
 13 14  1  0
  8 15  1  0
 15 16  2  0
 16 17  1  0
 17 18  1  0
 18 19  1  0
 19 20  1  0
 20 21  2  0
 20 22  1  0
 22 23  1  0
 23 24  1  0
 23 25  2  0
 25 26  1  0
 19 27  1  0
 13  4  1  0
 25 15  1  0
 12  7  1  0
 22 17  2  0
  1 28  1  0
  1 29  1  0
  9 30  1  0
 10 31  1  0
 11 32  1  0
 14 33  1  0
 14 34  1  0
 16 35  1  0
 18 36  1  0
 18 37  1  0
 24 38  1  0
 24 39  1  0
 24 40  1  0
 26 41  1  0
 26 42  1  0
 26 43  1  0
 27 44  1  0
 27 45  1  0
 27 46  1  0
M  END
$$$$
confid_3
     RDKit          3D

 46 49  0  0  0  0  0  0  0  0999 V2000
   24.6900   26.1200   35.5300 N   0  0  0  0  0  0  0  0  0  0  0  0
   25.6600   25.6700   34.6600 C   0  0  0  0  0  0  0  0  0  0  0  0
   25.2400   25.0100   33.7200 O   0  0  0  0  0  0  0  0  0  0  0  0
   27.0300   26.2200   34.8800 C   0  0  0  0  0  0  0  0  0  0  0  0
   27.3500   26.7300   36.0700 N   0  0  0  0  0  0  0  0  0  0  0  0
   28.5700   27.1800   36.3300 N   0  0  0  0  0  0  0  0  0  0  0  0
   29.5300   27.1100   35.3900 C   0  0  0  0  0  0  0  0  0  0  0  0
   30.8300   27.5700   35.6500 C   0  0  0  0  0  0  0  0  0  0  0  0
   31.8500   27.5400   34.6900 C   0  0  0  0  0  0  0  0  0  0  0  0
   31.5100   27.1200   33.4000 C   0  0  0  0  0  0  0  0  0  0  0  0
   30.2200   26.6300   33.1100 C   0  0  0  0  0  0  0  0  0  0  0  0
   29.2400   26.6600   34.1000 C   0  0  0  0  0  0  0  0  0  0  0  0
   27.9300   26.2600   33.8100 C   0  0  0  0  0  0  0  0  0  0  0  0
   27.5200   25.7100   32.6100 N   0  0  0  0  0  0  0  0  0  0  0  0
   31.1708   28.0873   36.9963 C   0  0  0  0  0  0  0  0  0  0  0  0
   32.0054   27.2997   37.8096 C   0  0  0  0  0  0  0  0  0  0  0  0
   32.3252   27.7450   39.0846 C   0  0  0  0  0  0  0  0  0  0  0  0
   33.2126   27.0617   40.0851 C   0  0  0  0  0  0  0  0  0  0  0  0
   33.1950   27.9783   41.2240 N   0  0  0  0  0  0  0  0  0  0  0  0
   32.3685   29.0913   40.9071 C   0  0  0  0  0  0  0  0  0  0  0  0
   32.1886   30.0724   41.6762 O   0  0  0  0  0  0  0  0  0  0  0  0
   31.8194   28.9311   39.5722 C   0  0  0  0  0  0  0  0  0  0  0  0
   30.9565   29.7419   38.8148 C   0  0  0  0  0  0  0  0  0  0  0  0
   30.4030   31.0160   39.4058 C   0  0  0  0  0  0  0  0  0  0  0  0
   30.6749   29.3406   37.4743 C   0  0  0  0  0  0  0  0  0  0  0  0
   29.8457   30.2296   36.5722 C   0  0  0  0  0  0  0  0  0  0  0  0
   33.9204   27.7899   42.4734 C   0  0  0  0  0  0  0  0  0  0  0  0
   23.6982   25.8077   35.4228 H   0  0  0  0  0  0  0  0  0  0  0  0
   24.8908   26.7907   36.3049 H   0  0  0  0  0  0  0  0  0  0  0  0
   32.8519   27.8878   34.9113 H   0  0  0  0  0  0  0  0  0  0  0  0
   32.2653   27.1213   32.6248 H   0  0  0  0  0  0  0  0  0  0  0  0
   30.0114   26.2786   32.1078 H   0  0  0  0  0  0  0  0  0  0  0  0
   27.3415   24.6831   32.5416 H   0  0  0  0  0  0  0  0  0  0  0  0
   27.6977   26.2230   31.7183 H   0  0  0  0  0  0  0  0  0  0  0  0
   32.3982   26.3548   37.4536 H   0  0  0  0  0  0  0  0  0  0  0  0
   32.7909   26.0759   40.3752 H   0  0  0  0  0  0  0  0  0  0  0  0
   34.2446   26.9585   39.6873 H   0  0  0  0  0  0  0  0  0  0  0  0
   31.1434   31.8342   39.2873 H   0  0  0  0  0  0  0  0  0  0  0  0
   29.4474   31.3130   38.9289 H   0  0  0  0  0  0  0  0  0  0  0  0
   30.1691   30.8815   40.4810 H   0  0  0  0  0  0  0  0  0  0  0  0
   28.7705   30.1171   36.8237 H   0  0  0  0  0  0  0  0  0  0  0  0
   29.9878   29.9920   35.4985 H   0  0  0  0  0  0  0  0  0  0  0  0
   30.1459   31.2916   36.6910 H   0  0  0  0  0  0  0  0  0  0  0  0
   34.6292   28.6308   42.6236 H   0  0  0  0  0  0  0  0  0  0  0  0
   34.4909   26.8375   42.4468 H   0  0  0  0  0  0  0  0  0  0  0  0
   33.2029   27.7571   43.3196 H   0  0  0  0  0  0  0  0  0  0  0  0
  1  2  1  0
  2  3  2  0
  2  4  1  0
  4  5  2  0
  5  6  1  0
  6  7  2  0
  7  8  1  0
  8  9  2  0
  9 10  1  0
 10 11  2  0
 11 12  1  0
 12 13  2  0
 13 14  1  0
  8 15  1  0
 15 16  2  0
 16 17  1  0
 17 18  1  0
 18 19  1  0
 19 20  1  0
 20 21  2  0
 20 22  1  0
 22 23  1  0
 23 24  1  0
 23 25  2  0
 25 26  1  0
 19 27  1  0
 13  4  1  0
 25 15  1  0
 12  7  1  0
 22 17  2  0
  1 28  1  0
  1 29  1  0
  9 30  1  0
 10 31  1  0
 11 32  1  0
 14 33  1  0
 14 34  1  0
 16 35  1  0
 18 36  1  0
 18 37  1  0
 24 38  1  0
 24 39  1  0
 24 40  1  0
 26 41  1  0
 26 42  1  0
 26 43  1  0
 27 44  1  0
 27 45  1  0
 27 46  1  0
M  END
$$$$
