confid_0
     RDKit          3D

 46 50  0  0  0  0  0  0  0  0999 V2000
   24.6900   26.1200   35.5300 N   0  0  0  0  0  0  0  0  0  0  0  0
   25.6600   25.6700   34.6600 C   0  0  0  0  0  0  0  0  0  0  0  0
   25.2400   25.0100   33.7200 O   0  0  0  0  0  0  0  0  0  0  0  0
   27.0300   26.2200   34.8800 C   0  0  0  0  0  0  0  0  0  0  0  0
   27.3500   26.7300   36.0700 N   0  0  0  0  0  0  0  0  0  0  0  0
   28.5700   27.1800   36.3300 N   0  0  0  0  0  0  0  0  0  0  0  0
   29.5300   27.1100   35.3900 C   0  0  0  0  0  0  0  0  0  0  0  0
   30.8300   27.5700   35.6500 C   0  0  0  0  0  0  0  0  0  0  0  0
   31.8500   27.5400   34.6900 C   0  0  0  0  0  0  0  0  0  0  0  0
   31.5100   27.1200   33.4000 C   0  0  0  0  0  0  0  0  0  0  0  0
   30.2200   26.6300   33.1100 C   0  0  0  0  0  0  0  0  0  0  0  0
   29.2400   26.6600   34.1000 C   0  0  0  0  0  0  0  0  0  0  0  0
   27.9300   26.2600   33.8100 C   0  0  0  0  0  0  0  0  0  0  0  0
   27.5200   25.7100   32.6100 N   0  0  0  0  0  0  0  0  0  0  0  0
   31.1566   28.0489   36.9642 N   0  0  0  0  0  0  0  0  0  0  0  0
   30.6875   29.3944   37.3706 C   0  0  0  0  0  0  0  0  0  0  0  0
   29.8420   29.3860   38.6725 C   0  0  0  0  0  0  0  0  0  0  0  0
   30.4024   28.4739   39.6780 N   0  0  0  0  0  0  0  0  0  0  0  0
   31.8298   28.6449   39.9929 C   0  0  0  0  0  0  0  0  0  0  0  0
   32.7032   27.9071   38.9306 C   0  0  0  0  0  0  0  0  0  0  0  0
   30.0243   27.1022   39.5259 C   0  0  0  0  0  0  0  0  0  0  0  0
   28.9439   26.5671   40.1521 N   0  0  0  0  0  0  0  0  0  0  0  0
   28.5858   25.2713   39.9305 C   0  0  0  0  0  0  0  0  0  0  0  0
   29.3181   24.4788   39.0336 C   0  0  0  0  0  0  0  0  0  0  0  0
   30.4198   25.0284   38.3680 C   0  0  0  0  0  0  0  0  0  0  0  0
   30.7792   26.3519   38.6329 C   0  0  0  0  0  0  0  0  0  0  0  0
   31.8421   27.1230   37.8942 C   0  0  0  0  0  0  0  0  0  0  0  0
   23.6980   25.8083   35.4224 H   0  0  0  0  0  0  0  0  0  0  0  0
   24.8912   26.7891   36.3062 H   0  0  0  0  0  0  0  0  0  0  0  0
   32.8510   27.8842   34.9181 H   0  0  0  0  0  0  0  0  0  0  0  0
   32.2657   27.1201   32.6252 H   0  0  0  0  0  0  0  0  0  0  0  0
   30.0115   26.2782   32.1079 H   0  0  0  0  0  0  0  0  0  0  0  0
   27.3415   24.6831   32.5417 H   0  0  0  0  0  0  0  0  0  0  0  0
   27.6978   26.2229   31.7183 H   0  0  0  0  0  0  0  0  0  0  0  0
   31.5695   30.0548   37.5103 H   0  0  0  0  0  0  0  0  0  0  0  0
   30.0815   29.8562   36.5602 H   0  0  0  0  0  0  0  0  0  0  0  0
   28.7931   29.0989   38.4374 H   0  0  0  0  0  0  0  0  0  0  0  0
   29.8115   30.4156   39.0889 H   0  0  0  0  0  0  0  0  0  0  0  0
   32.0938   29.7246   40.0322 H   0  0  0  0  0  0  0  0  0  0  0  0
   32.0322   28.2205   41.0007 H   0  0  0  0  0  0  0  0  0  0  0  0
   33.3554   28.6336   38.3994 H   0  0  0  0  0  0  0  0  0  0  0  0
   33.3747   27.1901   39.4519 H   0  0  0  0  0  0  0  0  0  0  0  0
   27.7258   24.8576   40.4398 H   0  0  0  0  0  0  0  0  0  0  0  0
   29.0232   23.4547   38.8452 H   0  0  0  0  0  0  0  0  0  0  0  0
   30.9707   24.4396   37.6459 H   0  0  0  0  0  0  0  0  0  0  0  0
   32.5075   26.4318   37.3299 H   0  0  0  0  0  0  0  0  0  0  0  0
  1  2  1  0
  2  3  2  0
  2  4  1  0
  4  5  2  0
  5  6  1  0
  6  7  2  0
  7  8  1  0
  8  9  2  0
  9 10  1  0
 10 11  2  0
 11 12  1  0
 12 13  2  0
 13 14  1  0
  8 15  1  0
 15 16  1  0
 16 17  1  0
 17 18  1  0
 18 19  1  0
 19 20  1  0
 18 21  1  0
 21 22  2  0
 22 23  1  0
 23 24  2  0
 24 25  1  0
 25 26  2  0
 26 27  1  0
 13  4  1  0
 27 15  1  0
 12  7  1  0
 27 20  1  0
 26 21  1  0
  1 28  1  0
  1 29  1  0
  9 30  1  0
 10 31  1  0
 11 32  1  0
 14 33  1  0
 14 34  1  0
 16 35  1  0
 16 36  1  0
 17 37  1  0
 17 38  1  0
 19 39  1  0
 19 40  1  0
 20 41  1  0
 20 42  1  0
 23 43  1  0
 24 44  1  0
 25 45  1  0
 27 46  1  0
M  END
$$$$
confid_1
     RDKit          3D

 46 50  0  0  0  0  0  0  0  0999 V2000
   24.6900   26.1200   35.5300 N   0  0  0  0  0  0  0  0  0  0  0  0
   25.6600   25.6700   34.6600 C   0  0  0  0  0  0  0  0  0  0  0  0
   25.2400   25.0100   33.7200 O   0  0  0  0  0  0  0  0  0  0  0  0
   27.0300   26.2200   34.8800 C   0  0  0  0  0  0  0  0  0  0  0  0
   27.3500   26.7300   36.0700 N   0  0  0  0  0  0  0  0  0  0  0  0
   28.5700   27.1800   36.3300 N   0  0  0  0  0  0  0  0  0  0  0  0
   29.5300   27.1100   35.3900 C   0  0  0  0  0  0  0  0  0  0  0  0
   30.8300   27.5700   35.6500 C   0  0  0  0  0  0  0  0  0  0  0  0
   31.8500   27.5400   34.6900 C   0  0  0  0  0  0  0  0  0  0  0  0
   31.5100   27.1200   33.4000 C   0  0  0  0  0  0  0  0  0  0  0  0
   30.2200   26.6300   33.1100 C   0  0  0  0  0  0  0  0  0  0  0  0
   29.2400   26.6600   34.1000 C   0  0  0  0  0  0  0  0  0  0  0  0
   27.9300   26.2600   33.8100 C   0  0  0  0  0  0  0  0  0  0  0  0
   27.5200   25.7100   32.6100 N   0  0  0  0  0  0  0  0  0  0  0  0
   31.1504   28.0705   36.9594 N   0  0  0  0  0  0  0  0  0  0  0  0
   30.5844   29.3751   37.3790 C   0  0  0  0  0  0  0  0  0  0  0  0
   29.8817   29.3211   38.7629 C   0  0  0  0  0  0  0  0  0  0  0  0
   30.6238   28.4854   39.7186 N   0  0  0  0  0  0  0  0  0  0  0  0
   30.3021   27.0468   39.7242 C   0  0  0  0  0  0  0  0  0  0  0  0
   31.1492   26.2904   38.6574 C   0  0  0  0  0  0  0  0  0  0  0  0
   32.0290   28.7483   39.7808 C   0  0  0  0  0  0  0  0  0  0  0  0
   32.5761   29.6286   40.6585 N   0  0  0  0  0  0  0  0  0  0  0  0
   33.9093   29.9069   40.6170 C   0  0  0  0  0  0  0  0  0  0  0  0
   34.7280   29.3071   39.6473 C   0  0  0  0  0  0  0  0  0  0  0  0
   34.1660   28.4207   38.7205 C   0  0  0  0  0  0  0  0  0  0  0  0
   32.8004   28.1387   38.7967 C   0  0  0  0  0  0  0  0  0  0  0  0
   32.0349   27.2573   37.8300 C   0  0  0  0  0  0  0  0  0  0  0  0
   23.6981   25.8079   35.4226 H   0  0  0  0  0  0  0  0  0  0  0  0
   24.8909   26.7903   36.3052 H   0  0  0  0  0  0  0  0  0  0  0  0
   32.8491   27.8924   34.9142 H   0  0  0  0  0  0  0  0  0  0  0  0
   32.2637   27.1273   32.6233 H   0  0  0  0  0  0  0  0  0  0  0  0
   30.0100   26.3036   32.1003 H   0  0  0  0  0  0  0  0  0  0  0  0
   26.6941   26.1028   32.1054 H   0  0  0  0  0  0  0  0  0  0  0  0
   28.1317   25.0435   32.0893 H   0  0  0  0  0  0  0  0  0  0  0  0
   29.8556   29.7481   36.6260 H   0  0  0  0  0  0  0  0  0  0  0  0
   31.4053   30.1235   37.4145 H   0  0  0  0  0  0  0  0  0  0  0  0
   29.8022   30.3529   39.1676 H   0  0  0  0  0  0  0  0  0  0  0  0
   28.8432   28.9448   38.6380 H   0  0  0  0  0  0  0  0  0  0  0  0
   29.2181   26.8815   39.5405 H   0  0  0  0  0  0  0  0  0  0  0  0
   30.5231   26.6325   40.7321 H   0  0  0  0  0  0  0  0  0  0  0  0
   30.4814   25.7163   37.9796 H   0  0  0  0  0  0  0  0  0  0  0  0
   31.8063   25.5534   39.1695 H   0  0  0  0  0  0  0  0  0  0  0  0
   34.3344   30.6029   41.3277 H   0  0  0  0  0  0  0  0  0  0  0  0
   35.7847   29.5374   39.6087 H   0  0  0  0  0  0  0  0  0  0  0  0
   34.7824   27.9687   37.9541 H   0  0  0  0  0  0  0  0  0  0  0  0
   32.7493   26.6656   37.2156 H   0  0  0  0  0  0  0  0  0  0  0  0
  1  2  1  0
  2  3  2  0
  2  4  1  0
  4  5  2  0
  5  6  1  0
  6  7  2  0
  7  8  1  0
  8  9  2  0
  9 10  1  0
 10 11  2  0
 11 12  1  0
 12 13  2  0
 13 14  1  0
  8 15  1  0
 15 16  1  0
 16 17  1  0
 17 18  1  0
 18 19  1  0
 19 20  1  0
 18 21  1  0
 21 22  2  0
 22 23  1  0
 23 24  2  0
 24 25  1  0
 25 26  2  0
 26 27  1  0
 13  4  1  0
 27 15  1  0
 12  7  1  0
 27 20  1  0
 26 21  1  0
  1 28  1  0
  1 29  1  0
  9 30  1  0
 10 31  1  0
 11 32  1  0
 14 33  1  0
 14 34  1  0
 16 35  1  0
 16 36  1  0
 17 37  1  0
 17 38  1  0
 19 39  1  0
 19 40  1  0
 20 41  1  0
 20 42  1  0
 23 43  1  0
 24 44  1  0
 25 45  1  0
 27 46  1  0
M  END
$$$$
confid_2
     RDKit          3D

 46 50  0  0  0  0  0  0  0  0999 V2000
   24.6900   26.1200   35.5300 N   0  0  0  0  0  0  0  0  0  0  0  0
   25.6600   25.6700   34.6600 C   0  0  0  0  0  0  0  0  0  0  0  0
   25.2400   25.0100   33.7200 O   0  0  0  0  0  0  0  0  0  0  0  0
   27.0300   26.2200   34.8800 C   0  0  0  0  0  0  0  0  0  0  0  0
   27.3500   26.7300   36.0700 N   0  0  0  0  0  0  0  0  0  0  0  0
   28.5700   27.1800   36.3300 N   0  0  0  0  0  0  0  0  0  0  0  0
   29.5300   27.1100   35.3900 C   0  0  0  0  0  0  0  0  0  0  0  0
   30.8300   27.5700   35.6500 C   0  0  0  0  0  0  0  0  0  0  0  0
   31.8500   27.5400   34.6900 C   0  0  0  0  0  0  0  0  0  0  0  0
   31.5100   27.1200   33.4000 C   0  0  0  0  0  0  0  0  0  0  0  0
   30.2200   26.6300   33.1100 C   0  0  0  0  0  0  0  0  0  0  0  0
   29.2400   26.6600   34.1000 C   0  0  0  0  0  0  0  0  0  0  0  0
   27.9300   26.2600   33.8100 C   0  0  0  0  0  0  0  0  0  0  0  0
   27.5200   25.7100   32.6100 N   0  0  0  0  0  0  0  0  0  0  0  0
   31.1427   28.0835   36.9552 N   0  0  0  0  0  0  0  0  0  0  0  0
   32.0660   27.3113   37.8194 C   0  0  0  0  0  0  0  0  0  0  0  0
   33.3588   28.0885   38.1825 C   0  0  0  0  0  0  0  0  0  0  0  0
   33.0727   29.4921   38.5082 N   0  0  0  0  0  0  0  0  0  0  0  0
   32.0174   29.7308   39.5064 C   0  0  0  0  0  0  0  0  0  0  0  0
   30.6137   29.6677   38.8256 C   0  0  0  0  0  0  0  0  0  0  0  0
   32.9786   30.3659   37.3792 C   0  0  0  0  0  0  0  0  0  0  0  0
   34.0380   31.0774   36.9133 N   0  0  0  0  0  0  0  0  0  0  0  0
   33.9125   31.8624   35.8067 C   0  0  0  0  0  0  0  0  0  0  0  0
   32.6892   31.9297   35.1224 C   0  0  0  0  0  0  0  0  0  0  0  0
   31.5980   31.1849   35.5846 C   0  0  0  0  0  0  0  0  0  0  0  0
   31.7483   30.4076   36.7353 C   0  0  0  0  0  0  0  0  0  0  0  0
   30.7104   29.4620   37.2829 C   0  0  0  0  0  0  0  0  0  0  0  0
   23.6982   25.8077   35.4228 H   0  0  0  0  0  0  0  0  0  0  0  0
   24.8908   26.7906   36.3050 H   0  0  0  0  0  0  0  0  0  0  0  0
   32.8484   27.8944   34.9139 H   0  0  0  0  0  0  0  0  0  0  0  0
   32.2649   27.1231   32.6245 H   0  0  0  0  0  0  0  0  0  0  0  0
   30.0113   26.2790   32.1077 H   0  0  0  0  0  0  0  0  0  0  0  0
   27.6977   26.2230   31.7183 H   0  0  0  0  0  0  0  0  0  0  0  0
   27.3415   24.6831   32.5416 H   0  0  0  0  0  0  0  0  0  0  0  0
   31.5337   27.0278   38.7519 H   0  0  0  0  0  0  0  0  0  0  0  0
   32.3526   26.3550   37.3289 H   0  0  0  0  0  0  0  0  0  0  0  0
   33.8395   27.6003   39.0573 H   0  0  0  0  0  0  0  0  0  0  0  0
   34.0800   28.0301   37.3370 H   0  0  0  0  0  0  0  0  0  0  0  0
   32.0847   28.9869   40.3303 H   0  0  0  0  0  0  0  0  0  0  0  0
   32.1665   30.7358   39.9587 H   0  0  0  0  0  0  0  0  0  0  0  0
   30.0739   30.6193   39.0252 H   0  0  0  0  0  0  0  0  0  0  0  0
   30.0063   28.8517   39.2733 H   0  0  0  0  0  0  0  0  0  0  0  0
   34.7634   32.4270   35.4500 H   0  0  0  0  0  0  0  0  0  0  0  0
   32.5940   32.5421   34.2353 H   0  0  0  0  0  0  0  0  0  0  0  0
   30.6580   31.2028   35.0481 H   0  0  0  0  0  0  0  0  0  0  0  0
   29.7148   29.6718   36.8327 H   0  0  0  0  0  0  0  0  0  0  0  0
  1  2  1  0
  2  3  2  0
  2  4  1  0
  4  5  2  0
  5  6  1  0
  6  7  2  0
  7  8  1  0
  8  9  2  0
  9 10  1  0
 10 11  2  0
 11 12  1  0
 12 13  2  0
 13 14  1  0
  8 15  1  0
 15 16  1  0
 16 17  1  0
 17 18  1  0
 18 19  1  0
 19 20  1  0
 18 21  1  0
 21 22  2  0
 22 23  1  0
 23 24  2  0
 24 25  1  0
 25 26  2  0
 26 27  1  0
 13  4  1  0
 27 15  1  0
 12  7  1  0
 27 20  1  0
 26 21  1  0
  1 28  1  0
  1 29  1  0
  9 30  1  0
 10 31  1  0
 11 32  1  0
 14 33  1  0
 14 34  1  0
 16 35  1  0
 16 36  1  0
 17 37  1  0
 17 38  1  0
 19 39  1  0
 19 40  1  0
 20 41  1  0
 20 42  1  0
 23 43  1  0
 24 44  1  0
 25 45  1  0
 27 46  1  0
M  END
$$$$
confid_3
     RDKit          3D

 46 50  0  0  0  0  0  0  0  0999 V2000
   24.6900   26.1200   35.5300 N   0  0  0  0  0  0  0  0  0  0  0  0
   25.6600   25.6700   34.6600 C   0  0  0  0  0  0  0  0  0  0  0  0
   25.2400   25.0100   33.7200 O   0  0  0  0  0  0  0  0  0  0  0  0
   27.0300   26.2200   34.8800 C   0  0  0  0  0  0  0  0  0  0  0  0
   27.3500   26.7300   36.0700 N   0  0  0  0  0  0  0  0  0  0  0  0
   28.5700   27.1800   36.3300 N   0  0  0  0  0  0  0  0  0  0  0  0
   29.5300   27.1100   35.3900 C   0  0  0  0  0  0  0  0  0  0  0  0
   30.8300   27.5700   35.6500 C   0  0  0  0  0  0  0  0  0  0  0  0
   31.8500   27.5400   34.6900 C   0  0  0  0  0  0  0  0  0  0  0  0
   31.5100   27.1200   33.4000 C   0  0  0  0  0  0  0  0  0  0  0  0
   30.2200   26.6300   33.1100 C   0  0  0  0  0  0  0  0  0  0  0  0
   29.2400   26.6600   34.1000 C   0  0  0  0  0  0  0  0  0  0  0  0
   27.9300   26.2600   33.8100 C   0  0  0  0  0  0  0  0  0  0  0  0
   27.5200   25.7100   32.6100 N   0  0  0  0  0  0  0  0  0  0  0  0
   31.1540   28.0461   36.9671 N   0  0  0  0  0  0  0  0  0  0  0  0
   31.5034   29.4760   37.1381 C   0  0  0  0  0  0  0  0  0  0  0  0
   32.9429   29.6953   37.6738 C   0  0  0  0  0  0  0  0  0  0  0  0
   33.2741   28.7414   38.7408 N   0  0  0  0  0  0  0  0  0  0  0  0
   32.3105   28.6374   39.8488 C   0  0  0  0  0  0  0  0  0  0  0  0
   31.1372   27.6880   39.4493 C   0  0  0  0  0  0  0  0  0  0  0  0
   33.7396   27.4670   38.2868 C   0  0  0  0  0  0  0  0  0  0  0  0
   35.0588   27.1820   38.1316 N   0  0  0  0  0  0  0  0  0  0  0  0
   35.4538   25.9692   37.6526 C   0  0  0  0  0  0  0  0  0  0  0  0
   34.4990   25.0050   37.2948 C   0  0  0  0  0  0  0  0  0  0  0  0
   33.1372   25.2977   37.4335 C   0  0  0  0  0  0  0  0  0  0  0  0
   32.7615   26.5399   37.9496 C   0  0  0  0  0  0  0  0  0  0  0  0
   31.3450   27.0459   38.0435 C   0  0  0  0  0  0  0  0  0  0  0  0
   24.8908   26.7905   36.3050 H   0  0  0  0  0  0  0  0  0  0  0  0
   23.6982   25.8076   35.4229 H   0  0  0  0  0  0  0  0  0  0  0  0
   32.8532   27.8773   34.9187 H   0  0  0  0  0  0  0  0  0  0  0  0
   32.2662   27.1184   32.6258 H   0  0  0  0  0  0  0  0  0  0  0  0
   30.0116   26.2778   32.1080 H   0  0  0  0  0  0  0  0  0  0  0  0
   27.6979   26.2229   31.7183 H   0  0  0  0  0  0  0  0  0  0  0  0
   27.3415   24.6831   32.5417 H   0  0  0  0  0  0  0  0  0  0  0  0
   31.3959   30.0226   36.1753 H   0  0  0  0  0  0  0  0  0  0  0  0
   30.7768   29.9429   37.8361 H   0  0  0  0  0  0  0  0  0  0  0  0
   33.6711   29.6036   36.8374 H   0  0  0  0  0  0  0  0  0  0  0  0
   33.0268   30.7303   38.0691 H   0  0  0  0  0  0  0  0  0  0  0  0
   32.8298   28.2307   40.7442 H   0  0  0  0  0  0  0  0  0  0  0  0
   31.9221   29.6428   40.1233 H   0  0  0  0  0  0  0  0  0  0  0  0
   30.1731   28.2404   39.4683 H   0  0  0  0  0  0  0  0  0  0  0  0
   31.0591   26.8754   40.2045 H   0  0  0  0  0  0  0  0  0  0  0  0
   36.5078   25.7546   37.5387 H   0  0  0  0  0  0  0  0  0  0  0  0
   34.8129   24.0472   36.9009 H   0  0  0  0  0  0  0  0  0  0  0  0
   32.3899   24.5752   37.1315 H   0  0  0  0  0  0  0  0  0  0  0  0
   30.6230   26.2077   37.9255 H   0  0  0  0  0  0  0  0  0  0  0  0
  1  2  1  0
  2  3  2  0
  2  4  1  0
  4  5  2  0
  5  6  1  0
  6  7  2  0
  7  8  1  0
  8  9  2  0
  9 10  1  0
 10 11  2  0
 11 12  1  0
 12 13  2  0
 13 14  1  0
  8 15  1  0
 15 16  1  0
 16 17  1  0
 17 18  1  0
 18 19  1  0
 19 20  1  0
 18 21  1  0
 21 22  2  0
 22 23  1  0
 23 24  2  0
 24 25  1  0
 25 26  2  0
 26 27  1  0
 13  4  1  0
 27 15  1  0
 12  7  1  0
 27 20  1  0
 26 21  1  0
  1 28  1  0
  1 29  1  0
  9 30  1  0
 10 31  1  0
 11 32  1  0
 14 33  1  0
 14 34  1  0
 16 35  1  0
 16 36  1  0
 17 37  1  0
 17 38  1  0
 19 39  1  0
 19 40  1  0
 20 41  1  0
 20 42  1  0
 23 43  1  0
 24 44  1  0
 25 45  1  0
 27 46  1  0
M  END
$$$$
confid_4
     RDKit          3D

 46 50  0  0  0  0  0  0  0  0999 V2000
   24.6900   26.1200   35.5300 N   0  0  0  0  0  0  0  0  0  0  0  0
   25.6600   25.6700   34.6600 C   0  0  0  0  0  0  0  0  0  0  0  0
   25.2400   25.0100   33.7200 O   0  0  0  0  0  0  0  0  0  0  0  0
   27.0300   26.2200   34.8800 C   0  0  0  0  0  0  0  0  0  0  0  0
   27.3500   26.7300   36.0700 N   0  0  0  0  0  0  0  0  0  0  0  0
   28.5700   27.1800   36.3300 N   0  0  0  0  0  0  0  0  0  0  0  0
   29.5300   27.1100   35.3900 C   0  0  0  0  0  0  0  0  0  0  0  0
   30.8300   27.5700   35.6500 C   0  0  0  0  0  0  0  0  0  0  0  0
   31.8500   27.5400   34.6900 C   0  0  0  0  0  0  0  0  0  0  0  0
   31.5100   27.1200   33.4000 C   0  0  0  0  0  0  0  0  0  0  0  0
   30.2200   26.6300   33.1100 C   0  0  0  0  0  0  0  0  0  0  0  0
   29.2400   26.6600   34.1000 C   0  0  0  0  0  0  0  0  0  0  0  0
   27.9300   26.2600   33.8100 C   0  0  0  0  0  0  0  0  0  0  0  0
   27.5200   25.7100   32.6100 N   0  0  0  0  0  0  0  0  0  0  0  0
   31.1458   28.0608   36.9604 N   0  0  0  0  0  0  0  0  0  0  0  0
   30.9474   29.5015   37.2426 C   0  0  0  0  0  0  0  0  0  0  0  0
   32.2000   30.1886   37.8484 C   0  0  0  0  0  0  0  0  0  0  0  0
   32.8583   29.3352   38.8466 N   0  0  0  0  0  0  0  0  0  0  0  0
   31.9994   28.7859   39.9088 C   0  0  0  0  0  0  0  0  0  0  0  0
   31.2676   27.5048   39.3972 C   0  0  0  0  0  0  0  0  0  0  0  0
   33.7662   28.3688   38.3082 C   0  0  0  0  0  0  0  0  0  0  0  0
   35.0986   28.6051   38.1827 N   0  0  0  0  0  0  0  0  0  0  0  0
   35.9190   27.6688   37.6279 C   0  0  0  0  0  0  0  0  0  0  0  0
   35.3928   26.4532   37.1634 C   0  0  0  0  0  0  0  0  0  0  0  0
   34.0183   26.2090   37.2731 C   0  0  0  0  0  0  0  0  0  0  0  0
   33.2040   27.1788   37.8633 C   0  0  0  0  0  0  0  0  0  0  0  0
   31.7008   27.1118   37.9523 C   0  0  0  0  0  0  0  0  0  0  0  0
   23.6984   25.8070   35.4235 H   0  0  0  0  0  0  0  0  0  0  0  0
   24.8905   26.7911   36.3041 H   0  0  0  0  0  0  0  0  0  0  0  0
   32.8493   27.8908   34.9155 H   0  0  0  0  0  0  0  0  0  0  0  0
   32.2639   27.1268   32.6235 H   0  0  0  0  0  0  0  0  0  0  0  0
   30.0101   26.3036   32.1004 H   0  0  0  0  0  0  0  0  0  0  0  0
   28.1319   25.0442   32.0889 H   0  0  0  0  0  0  0  0  0  0  0  0
   26.6939   26.1026   32.1056 H   0  0  0  0  0  0  0  0  0  0  0  0
   30.0895   29.6166   37.9390 H   0  0  0  0  0  0  0  0  0  0  0  0
   30.6677   30.0441   36.3125 H   0  0  0  0  0  0  0  0  0  0  0  0
   32.9144   30.4474   37.0348 H   0  0  0  0  0  0  0  0  0  0  0  0
   31.8911   31.1425   38.3280 H   0  0  0  0  0  0  0  0  0  0  0  0
   32.6305   28.5274   40.7875 H   0  0  0  0  0  0  0  0  0  0  0  0
   31.2614   29.5474   40.2464 H   0  0  0  0  0  0  0  0  0  0  0  0
   31.4986   26.6589   40.0818 H   0  0  0  0  0  0  0  0  0  0  0  0
   30.1661   27.6554   39.4280 H   0  0  0  0  0  0  0  0  0  0  0  0
   36.9786   27.8691   37.5379 H   0  0  0  0  0  0  0  0  0  0  0  0
   36.0429   25.7149   36.7116 H   0  0  0  0  0  0  0  0  0  0  0  0
   33.5950   25.2880   36.8925 H   0  0  0  0  0  0  0  0  0  0  0  0
   31.3406   26.0793   37.7412 H   0  0  0  0  0  0  0  0  0  0  0  0
  1  2  1  0
  2  3  2  0
  2  4  1  0
  4  5  2  0
  5  6  1  0
  6  7  2  0
  7  8  1  0
  8  9  2  0
  9 10  1  0
 10 11  2  0
 11 12  1  0
 12 13  2  0
 13 14  1  0
  8 15  1  0
 15 16  1  0
 16 17  1  0
 17 18  1  0
 18 19  1  0
 19 20  1  0
 18 21  1  0
 21 22  2  0
 22 23  1  0
 23 24  2  0
 24 25  1  0
 25 26  2  0
 26 27  1  0
 13  4  1  0
 27 15  1  0
 12  7  1  0
 27 20  1  0
 26 21  1  0
  1 28  1  0
  1 29  1  0
  9 30  1  0
 10 31  1  0
 11 32  1  0
 14 33  1  0
 14 34  1  0
 16 35  1  0
 16 36  1  0
 17 37  1  0
 17 38  1  0
 19 39  1  0
 19 40  1  0
 20 41  1  0
 20 42  1  0
 23 43  1  0
 24 44  1  0
 25 45  1  0
 27 46  1  0
M  END
$$$$
confid_5
     RDKit          3D

 46 50  0  0  0  0  0  0  0  0999 V2000
   24.6900   26.1200   35.5300 N   0  0  0  0  0  0  0  0  0  0  0  0
   25.6600   25.6700   34.6600 C   0  0  0  0  0  0  0  0  0  0  0  0
   25.2400   25.0100   33.7200 O   0  0  0  0  0  0  0  0  0  0  0  0
   27.0300   26.2200   34.8800 C   0  0  0  0  0  0  0  0  0  0  0  0
   27.3500   26.7300   36.0700 N   0  0  0  0  0  0  0  0  0  0  0  0
   28.5700   27.1800   36.3300 N   0  0  0  0  0  0  0  0  0  0  0  0
   29.5300   27.1100   35.3900 C   0  0  0  0  0  0  0  0  0  0  0  0
   30.8300   27.5700   35.6500 C   0  0  0  0  0  0  0  0  0  0  0  0
   31.8500   27.5400   34.6900 C   0  0  0  0  0  0  0  0  0  0  0  0
   31.5100   27.1200   33.4000 C   0  0  0  0  0  0  0  0  0  0  0  0
   30.2200   26.6300   33.1100 C   0  0  0  0  0  0  0  0  0  0  0  0
   29.2400   26.6600   34.1000 C   0  0  0  0  0  0  0  0  0  0  0  0
   27.9300   26.2600   33.8100 C   0  0  0  0  0  0  0  0  0  0  0  0
   27.5200   25.7100   32.6100 N   0  0  0  0  0  0  0  0  0  0  0  0
   31.1527   28.0604   36.9619 N   0  0  0  0  0  0  0  0  0  0  0  0
   31.4193   29.5092   37.1265 C   0  0  0  0  0  0  0  0  0  0  0  0
   32.7755   29.8074   37.8205 C   0  0  0  0  0  0  0  0  0  0  0  0
   33.0379   28.8768   38.9290 N   0  0  0  0  0  0  0  0  0  0  0  0
   33.7367   27.6261   38.5851 C   0  0  0  0  0  0  0  0  0  0  0  0
   32.7212   26.5457   38.1077 C   0  0  0  0  0  0  0  0  0  0  0  0
   31.9380   28.6763   39.8226 C   0  0  0  0  0  0  0  0  0  0  0  0
   31.7603   29.4125   40.9501 N   0  0  0  0  0  0  0  0  0  0  0  0
   30.6498   29.2388   41.7203 C   0  0  0  0  0  0  0  0  0  0  0  0
   29.6624   28.3158   41.3414 C   0  0  0  0  0  0  0  0  0  0  0  0
   29.8246   27.5737   40.1652 C   0  0  0  0  0  0  0  0  0  0  0  0
   30.9815   27.7564   39.4049 C   0  0  0  0  0  0  0  0  0  0  0  0
   31.2677   27.0869   38.0759 C   0  0  0  0  0  0  0  0  0  0  0  0
   24.8909   26.7902   36.3053 H   0  0  0  0  0  0  0  0  0  0  0  0
   23.6981   25.8079   35.4227 H   0  0  0  0  0  0  0  0  0  0  0  0
   32.8514   27.8836   34.9178 H   0  0  0  0  0  0  0  0  0  0  0  0
   32.2657   27.1201   32.6252 H   0  0  0  0  0  0  0  0  0  0  0  0
   30.0115   26.2783   32.1079 H   0  0  0  0  0  0  0  0  0  0  0  0
   27.3415   24.6831   32.5417 H   0  0  0  0  0  0  0  0  0  0  0  0
   27.6978   26.2229   31.7183 H   0  0  0  0  0  0  0  0  0  0  0  0
   31.4043   30.0261   36.1417 H   0  0  0  0  0  0  0  0  0  0  0  0
   30.5962   29.9560   37.7250 H   0  0  0  0  0  0  0  0  0  0  0  0
   32.7590   30.8463   38.2143 H   0  0  0  0  0  0  0  0  0  0  0  0
   33.5925   29.7608   37.0679 H   0  0  0  0  0  0  0  0  0  0  0  0
   34.5066   27.8031   37.8028 H   0  0  0  0  0  0  0  0  0  0  0  0
   34.2741   27.2550   39.4850 H   0  0  0  0  0  0  0  0  0  0  0  0
   32.7636   25.6758   38.7995 H   0  0  0  0  0  0  0  0  0  0  0  0
   33.0085   26.1751   37.1001 H   0  0  0  0  0  0  0  0  0  0  0  0
   30.5246   29.8250   42.6208 H   0  0  0  0  0  0  0  0  0  0  0  0
   28.7753   28.1876   41.9479 H   0  0  0  0  0  0  0  0  0  0  0  0
   29.0593   26.8763   39.8494 H   0  0  0  0  0  0  0  0  0  0  0  0
   30.5667   26.2366   37.9245 H   0  0  0  0  0  0  0  0  0  0  0  0
  1  2  1  0
  2  3  2  0
  2  4  1  0
  4  5  2  0
  5  6  1  0
  6  7  2  0
  7  8  1  0
  8  9  2  0
  9 10  1  0
 10 11  2  0
 11 12  1  0
 12 13  2  0
 13 14  1  0
  8 15  1  0
 15 16  1  0
 16 17  1  0
 17 18  1  0
 18 19  1  0
 19 20  1  0
 18 21  1  0
 21 22  2  0
 22 23  1  0
 23 24  2  0
 24 25  1  0
 25 26  2  0
 26 27  1  0
 13  4  1  0
 27 15  1  0
 12  7  1  0
 27 20  1  0
 26 21  1  0
  1 28  1  0
  1 29  1  0
  9 30  1  0
 10 31  1  0
 11 32  1  0
 14 33  1  0
 14 34  1  0
 16 35  1  0
 16 36  1  0
 17 37  1  0
 17 38  1  0
 19 39  1  0
 19 40  1  0
 20 41  1  0
 20 42  1  0
 23 43  1  0
 24 44  1  0
 25 45  1  0
 27 46  1  0
M  END
$$$$
confid_6
     RDKit          3D

 46 50  0  0  0  0  0  0  0  0999 V2000
   24.6900   26.1200   35.5300 N   0  0  0  0  0  0  0  0  0  0  0  0
   25.6600   25.6700   34.6600 C   0  0  0  0  0  0  0  0  0  0  0  0
   25.2400   25.0100   33.7200 O   0  0  0  0  0  0  0  0  0  0  0  0
   27.0300   26.2200   34.8800 C   0  0  0  0  0  0  0  0  0  0  0  0
   27.3500   26.7300   36.0700 N   0  0  0  0  0  0  0  0  0  0  0  0
   28.5700   27.1800   36.3300 N   0  0  0  0  0  0  0  0  0  0  0  0
   29.5300   27.1100   35.3900 C   0  0  0  0  0  0  0  0  0  0  0  0
   30.8300   27.5700   35.6500 C   0  0  0  0  0  0  0  0  0  0  0  0
   31.8500   27.5400   34.6900 C   0  0  0  0  0  0  0  0  0  0  0  0
   31.5100   27.1200   33.4000 C   0  0  0  0  0  0  0  0  0  0  0  0
   30.2200   26.6300   33.1100 C   0  0  0  0  0  0  0  0  0  0  0  0
   29.2400   26.6600   34.1000 C   0  0  0  0  0  0  0  0  0  0  0  0
   27.9300   26.2600   33.8100 C   0  0  0  0  0  0  0  0  0  0  0  0
   27.5200   25.7100   32.6100 N   0  0  0  0  0  0  0  0  0  0  0  0
   31.1490   28.0698   36.9587 N   0  0  0  0  0  0  0  0  0  0  0  0
   31.9991   27.2384   37.8435 C   0  0  0  0  0  0  0  0  0  0  0  0
   33.2255   28.0029   38.4105 C   0  0  0  0  0  0  0  0  0  0  0  0
   32.8807   29.3801   38.7950 N   0  0  0  0  0  0  0  0  0  0  0  0
   33.0008   30.4052   37.7435 C   0  0  0  0  0  0  0  0  0  0  0  0
   31.6986   30.4696   36.8911 C   0  0  0  0  0  0  0  0  0  0  0  0
   31.6841   29.5095   39.5694 C   0  0  0  0  0  0  0  0  0  0  0  0
   31.6807   29.5058   40.9276 N   0  0  0  0  0  0  0  0  0  0  0  0
   30.5051   29.5465   41.6153 C   0  0  0  0  0  0  0  0  0  0  0  0
   29.2820   29.5637   40.9266 C   0  0  0  0  0  0  0  0  0  0  0  0
   29.2764   29.5382   39.5267 C   0  0  0  0  0  0  0  0  0  0  0  0
   30.4956   29.5179   38.8462 C   0  0  0  0  0  0  0  0  0  0  0  0
   30.6548   29.4148   37.3428 C   0  0  0  0  0  0  0  0  0  0  0  0
   24.8908   26.7903   36.3052 H   0  0  0  0  0  0  0  0  0  0  0  0
   23.6981   25.8078   35.4227 H   0  0  0  0  0  0  0  0  0  0  0  0
   32.8500   27.8884   34.9166 H   0  0  0  0  0  0  0  0  0  0  0  0
   32.2654   27.1213   32.6249 H   0  0  0  0  0  0  0  0  0  0  0  0
   30.0114   26.2786   32.1078 H   0  0  0  0  0  0  0  0  0  0  0  0
   27.3416   24.6831   32.5416 H   0  0  0  0  0  0  0  0  0  0  0  0
   27.6975   26.2231   31.7183 H   0  0  0  0  0  0  0  0  0  0  0  0
   31.3777   26.8671   38.6868 H   0  0  0  0  0  0  0  0  0  0  0  0
   32.3633   26.3364   37.3038 H   0  0  0  0  0  0  0  0  0  0  0  0
   33.6075   27.4614   39.3025 H   0  0  0  0  0  0  0  0  0  0  0  0
   34.0428   27.9994   37.6568 H   0  0  0  0  0  0  0  0  0  0  0  0
   33.1773   31.3931   38.2225 H   0  0  0  0  0  0  0  0  0  0  0  0
   33.8784   30.2045   37.0910 H   0  0  0  0  0  0  0  0  0  0  0  0
   31.9421   30.3238   35.8165 H   0  0  0  0  0  0  0  0  0  0  0  0
   31.2491   31.4823   36.9893 H   0  0  0  0  0  0  0  0  0  0  0  0
   30.5163   29.5526   42.6970 H   0  0  0  0  0  0  0  0  0  0  0  0
   28.3488   29.5838   41.4743 H   0  0  0  0  0  0  0  0  0  0  0  0
   28.3397   29.5271   38.9842 H   0  0  0  0  0  0  0  0  0  0  0  0
   29.6827   29.6287   36.8459 H   0  0  0  0  0  0  0  0  0  0  0  0
  1  2  1  0
  2  3  2  0
  2  4  1  0
  4  5  2  0
  5  6  1  0
  6  7  2  0
  7  8  1  0
  8  9  2  0
  9 10  1  0
 10 11  2  0
 11 12  1  0
 12 13  2  0
 13 14  1  0
  8 15  1  0
 15 16  1  0
 16 17  1  0
 17 18  1  0
 18 19  1  0
 19 20  1  0
 18 21  1  0
 21 22  2  0
 22 23  1  0
 23 24  2  0
 24 25  1  0
 25 26  2  0
 26 27  1  0
 13  4  1  0
 27 15  1  0
 12  7  1  0
 27 20  1  0
 26 21  1  0
  1 28  1  0
  1 29  1  0
  9 30  1  0
 10 31  1  0
 11 32  1  0
 14 33  1  0
 14 34  1  0
 16 35  1  0
 16 36  1  0
 17 37  1  0
 17 38  1  0
 19 39  1  0
 19 40  1  0
 20 41  1  0
 20 42  1  0
 23 43  1  0
 24 44  1  0
 25 45  1  0
 27 46  1  0
M  END
$$$$
confid_7
     RDKit          3D

 46 50  0  0  0  0  0  0  0  0999 V2000
   24.6900   26.1200   35.5300 N   0  0  0  0  0  0  0  0  0  0  0  0
   25.6600   25.6700   34.6600 C   0  0  0  0  0  0  0  0  0  0  0  0
   25.2400   25.0100   33.7200 O   0  0  0  0  0  0  0  0  0  0  0  0
   27.0300   26.2200   34.8800 C   0  0  0  0  0  0  0  0  0  0  0  0
   27.3500   26.7300   36.0700 N   0  0  0  0  0  0  0  0  0  0  0  0
   28.5700   27.1800   36.3300 N   0  0  0  0  0  0  0  0  0  0  0  0
   29.5300   27.1100   35.3900 C   0  0  0  0  0  0  0  0  0  0  0  0
   30.8300   27.5700   35.6500 C   0  0  0  0  0  0  0  0  0  0  0  0
   31.8500   27.5400   34.6900 C   0  0  0  0  0  0  0  0  0  0  0  0
   31.5100   27.1200   33.4000 C   0  0  0  0  0  0  0  0  0  0  0  0
   30.2200   26.6300   33.1100 C   0  0  0  0  0  0  0  0  0  0  0  0
   29.2400   26.6600   34.1000 C   0  0  0  0  0  0  0  0  0  0  0  0
   27.9300   26.2600   33.8100 C   0  0  0  0  0  0  0  0  0  0  0  0
   27.5200   25.7100   32.6100 N   0  0  0  0  0  0  0  0  0  0  0  0
   31.1483   28.0817   36.9540 N   0  0  0  0  0  0  0  0  0  0  0  0
   31.2841   27.1309   38.0826 C   0  0  0  0  0  0  0  0  0  0  0  0
   30.3476   27.4539   39.2779 C   0  0  0  0  0  0  0  0  0  0  0  0
   30.2839   28.8971   39.5430 N   0  0  0  0  0  0  0  0  0  0  0  0
   31.5723   29.5912   39.6974 C   0  0  0  0  0  0  0  0  0  0  0  0
   32.1626   29.9397   38.2953 C   0  0  0  0  0  0  0  0  0  0  0  0
   29.3540   29.6195   38.7299 C   0  0  0  0  0  0  0  0  0  0  0  0
   28.0701   29.8464   39.1119 N   0  0  0  0  0  0  0  0  0  0  0  0
   27.2019   30.4857   38.2789 C   0  0  0  0  0  0  0  0  0  0  0  0
   27.6190   30.8986   37.0044 C   0  0  0  0  0  0  0  0  0  0  0  0
   28.9338   30.6496   36.5944 C   0  0  0  0  0  0  0  0  0  0  0  0
   29.8096   30.0150   37.4783 C   0  0  0  0  0  0  0  0  0  0  0  0
   31.2004   29.5506   37.1320 C   0  0  0  0  0  0  0  0  0  0  0  0
   24.8907   26.7917   36.3041 H   0  0  0  0  0  0  0  0  0  0  0  0
   23.6982   25.8074   35.4232 H   0  0  0  0  0  0  0  0  0  0  0  0
   32.8494   27.8898   34.9163 H   0  0  0  0  0  0  0  0  0  0  0  0
   32.2638   27.1268   32.6234 H   0  0  0  0  0  0  0  0  0  0  0  0
   30.0100   26.3035   32.1003 H   0  0  0  0  0  0  0  0  0  0  0  0
   28.1317   25.0436   32.0892 H   0  0  0  0  0  0  0  0  0  0  0  0
   26.6941   26.1029   32.1054 H   0  0  0  0  0  0  0  0  0  0  0  0
   32.3385   27.1362   38.4312 H   0  0  0  0  0  0  0  0  0  0  0  0
   31.0769   26.0920   37.7434 H   0  0  0  0  0  0  0  0  0  0  0  0
   29.3285   27.0565   39.0751 H   0  0  0  0  0  0  0  0  0  0  0  0
   30.7257   26.9320   40.1830 H   0  0  0  0  0  0  0  0  0  0  0  0
   31.4131   30.5269   40.2771 H   0  0  0  0  0  0  0  0  0  0  0  0
   32.2862   28.9643   40.2755 H   0  0  0  0  0  0  0  0  0  0  0  0
   33.1414   29.4323   38.1548 H   0  0  0  0  0  0  0  0  0  0  0  0
   32.3554   31.0339   38.2480 H   0  0  0  0  0  0  0  0  0  0  0  0
   26.1839   30.6635   38.5986 H   0  0  0  0  0  0  0  0  0  0  0  0
   26.9242   31.3912   36.3367 H   0  0  0  0  0  0  0  0  0  0  0  0
   29.2578   30.9293   35.6002 H   0  0  0  0  0  0  0  0  0  0  0  0
   31.5563   30.0401   36.1979 H   0  0  0  0  0  0  0  0  0  0  0  0
  1  2  1  0
  2  3  2  0
  2  4  1  0
  4  5  2  0
  5  6  1  0
  6  7  2  0
  7  8  1  0
  8  9  2  0
  9 10  1  0
 10 11  2  0
 11 12  1  0
 12 13  2  0
 13 14  1  0
  8 15  1  0
 15 16  1  0
 16 17  1  0
 17 18  1  0
 18 19  1  0
 19 20  1  0
 18 21  1  0
 21 22  2  0
 22 23  1  0
 23 24  2  0
 24 25  1  0
 25 26  2  0
 26 27  1  0
 13  4  1  0
 27 15  1  0
 12  7  1  0
 27 20  1  0
 26 21  1  0
  1 28  1  0
  1 29  1  0
  9 30  1  0
 10 31  1  0
 11 32  1  0
 14 33  1  0
 14 34  1  0
 16 35  1  0
 16 36  1  0
 17 37  1  0
 17 38  1  0
 19 39  1  0
 19 40  1  0
 20 41  1  0
 20 42  1  0
 23 43  1  0
 24 44  1  0
 25 45  1  0
 27 46  1  0
M  END
$$$$
confid_8
     RDKit          3D

 46 50  0  0  0  0  0  0  0  0999 V2000
   24.6900   26.1200   35.5300 N   0  0  0  0  0  0  0  0  0  0  0  0
   25.6600   25.6700   34.6600 C   0  0  0  0  0  0  0  0  0  0  0  0
   25.2400   25.0100   33.7200 O   0  0  0  0  0  0  0  0  0  0  0  0
   27.0300   26.2200   34.8800 C   0  0  0  0  0  0  0  0  0  0  0  0
   27.3500   26.7300   36.0700 N   0  0  0  0  0  0  0  0  0  0  0  0
   28.5700   27.1800   36.3300 N   0  0  0  0  0  0  0  0  0  0  0  0
   29.5300   27.1100   35.3900 C   0  0  0  0  0  0  0  0  0  0  0  0
   30.8300   27.5700   35.6500 C   0  0  0  0  0  0  0  0  0  0  0  0
   31.8500   27.5400   34.6900 C   0  0  0  0  0  0  0  0  0  0  0  0
   31.5100   27.1200   33.4000 C   0  0  0  0  0  0  0  0  0  0  0  0
   30.2200   26.6300   33.1100 C   0  0  0  0  0  0  0  0  0  0  0  0
   29.2400   26.6600   34.1000 C   0  0  0  0  0  0  0  0  0  0  0  0
   27.9300   26.2600   33.8100 C   0  0  0  0  0  0  0  0  0  0  0  0
   27.5200   25.7100   32.6100 N   0  0  0  0  0  0  0  0  0  0  0  0
   31.1534   28.0630   36.9618 N   0  0  0  0  0  0  0  0  0  0  0  0
   31.1901   27.1057   38.0936 C   0  0  0  0  0  0  0  0  0  0  0  0
   30.3460   27.5668   39.3130 C   0  0  0  0  0  0  0  0  0  0  0  0
   30.4775   29.0119   39.5513 N   0  0  0  0  0  0  0  0  0  0  0  0
   29.5392   29.8874   38.8260 C   0  0  0  0  0  0  0  0  0  0  0  0
   30.0949   30.2370   37.4128 C   0  0  0  0  0  0  0  0  0  0  0  0
   31.8223   29.5009   39.5461 C   0  0  0  0  0  0  0  0  0  0  0  0
   32.5754   29.5990   40.6722 N   0  0  0  0  0  0  0  0  0  0  0  0
   33.8791   29.9884   40.5994 C   0  0  0  0  0  0  0  0  0  0  0  0
   34.4667   30.2658   39.3551 C   0  0  0  0  0  0  0  0  0  0  0  0
   33.7050   30.1389   38.1871 C   0  0  0  0  0  0  0  0  0  0  0  0
   32.3661   29.7560   38.2914 C   0  0  0  0  0  0  0  0  0  0  0  0
   31.4336   29.5112   37.1217 C   0  0  0  0  0  0  0  0  0  0  0  0
   24.8908   26.7904   36.3051 H   0  0  0  0  0  0  0  0  0  0  0  0
   23.6981   25.8079   35.4227 H   0  0  0  0  0  0  0  0  0  0  0  0
   32.8520   27.8821   34.9170 H   0  0  0  0  0  0  0  0  0  0  0  0
   32.2643   27.1250   32.6239 H   0  0  0  0  0  0  0  0  0  0  0  0
   30.0102   26.3031   32.1005 H   0  0  0  0  0  0  0  0  0  0  0  0
   28.1316   25.0435   32.0893 H   0  0  0  0  0  0  0  0  0  0  0  0
   26.6941   26.1028   32.1054 H   0  0  0  0  0  0  0  0  0  0  0  0
   32.2468   26.9706   38.4104 H   0  0  0  0  0  0  0  0  0  0  0  0
   30.8313   26.1029   37.7730 H   0  0  0  0  0  0  0  0  0  0  0  0
   30.6871   27.0169   40.2164 H   0  0  0  0  0  0  0  0  0  0  0  0
   29.2810   27.2917   39.1532 H   0  0  0  0  0  0  0  0  0  0  0  0
   28.5388   29.4104   38.7372 H   0  0  0  0  0  0  0  0  0  0  0  0
   29.3971   30.8238   39.4084 H   0  0  0  0  0  0  0  0  0  0  0  0
   29.3460   29.9744   36.6347 H   0  0  0  0  0  0  0  0  0  0  0  0
   30.2618   31.3348   37.3481 H   0  0  0  0  0  0  0  0  0  0  0  0
   34.4654   30.0716   41.5046 H   0  0  0  0  0  0  0  0  0  0  0  0
   35.5053   30.5645   39.2979 H   0  0  0  0  0  0  0  0  0  0  0  0
   34.1526   30.3285   37.2200 H   0  0  0  0  0  0  0  0  0  0  0  0
   31.8815   29.9267   36.1918 H   0  0  0  0  0  0  0  0  0  0  0  0
  1  2  1  0
  2  3  2  0
  2  4  1  0
  4  5  2  0
  5  6  1  0
  6  7  2  0
  7  8  1  0
  8  9  2  0
  9 10  1  0
 10 11  2  0
 11 12  1  0
 12 13  2  0
 13 14  1  0
  8 15  1  0
 15 16  1  0
 16 17  1  0
 17 18  1  0
 18 19  1  0
 19 20  1  0
 18 21  1  0
 21 22  2  0
 22 23  1  0
 23 24  2  0
 24 25  1  0
 25 26  2  0
 26 27  1  0
 13  4  1  0
 27 15  1  0
 12  7  1  0
 27 20  1  0
 26 21  1  0
  1 28  1  0
  1 29  1  0
  9 30  1  0
 10 31  1  0
 11 32  1  0
 14 33  1  0
 14 34  1  0
 16 35  1  0
 16 36  1  0
 17 37  1  0
 17 38  1  0
 19 39  1  0
 19 40  1  0
 20 41  1  0
 20 42  1  0
 23 43  1  0
 24 44  1  0
 25 45  1  0
 27 46  1  0
M  END
$$$$
