confid_0
     RDKit          3D

 42 45  0  0  0  0  0  0  0  0999 V2000
   24.4800   26.1000   36.1300 N   0  0  0  0  0  0  0  0  0  0  0  0
   25.2500   26.2500   34.9900 C   0  0  0  0  0  0  0  0  0  0  0  0
   24.7400   25.7600   33.9900 O   0  0  0  0  0  0  0  0  0  0  0  0
   26.5900   26.8900   34.9600 C   0  0  0  0  0  0  0  0  0  0  0  0
   27.0600   27.2400   36.1600 N   0  0  0  0  0  0  0  0  0  0  0  0
   28.3000   27.7100   36.2400 N   0  0  0  0  0  0  0  0  0  0  0  0
   29.0500   27.9600   35.1500 C   0  0  0  0  0  0  0  0  0  0  0  0
   30.3400   28.4900   35.2600 C   0  0  0  0  0  0  0  0  0  0  0  0
   31.1100   28.8200   34.1400 C   0  0  0  0  0  0  0  0  0  0  0  0
   30.5200   28.6700   32.8800 C   0  0  0  0  0  0  0  0  0  0  0  0
   29.2900   28.0200   32.7700 C   0  0  0  0  0  0  0  0  0  0  0  0
   28.5200   27.7100   33.8900 C   0  0  0  0  0  0  0  0  0  0  0  0
   27.2700   27.0800   33.7600 C   0  0  0  0  0  0  0  0  0  0  0  0
   26.7500   26.8800   32.4900 N   0  0  0  0  0  0  0  0  0  0  0  0
   23.0433   25.9783   36.1455 C   0  0  0  0  0  0  0  0  0  0  0  0
   22.3072   26.2592   35.0218 N   0  0  0  0  0  0  0  0  0  0  0  0
   20.9453   26.1784   34.9971 C   0  0  0  0  0  0  0  0  0  0  0  0
   20.2765   25.8017   36.1576 C   0  0  0  0  0  0  0  0  0  0  0  0
   18.7991   25.6513   36.3827 C   0  0  0  0  0  0  0  0  0  0  0  0
   18.7182   25.2317   37.7855 N   0  0  0  0  0  0  0  0  0  0  0  0
   20.0371   25.1743   38.3229 C   0  0  0  0  0  0  0  0  0  0  0  0
   20.3092   24.8785   39.5167 O   0  0  0  0  0  0  0  0  0  0  0  0
   20.9902   25.5230   37.2986 C   0  0  0  0  0  0  0  0  0  0  0  0
   22.3797   25.6041   37.3334 C   0  0  0  0  0  0  0  0  0  0  0  0
   23.0633   25.3247   38.4718 F   0  0  0  0  0  0  0  0  0  0  0  0
   17.4791   25.0101   38.5263 C   0  0  0  0  0  0  0  0  0  0  0  0
   17.3075   23.5299   38.8455 C   0  0  0  0  0  0  0  0  0  0  0  0
   24.9715   26.1169   37.0517 H   0  0  0  0  0  0  0  0  0  0  0  0
   30.7582   28.6623   36.2441 H   0  0  0  0  0  0  0  0  0  0  0  0
   32.0994   29.2455   34.2469 H   0  0  0  0  0  0  0  0  0  0  0  0
   31.0716   28.9442   31.9898 H   0  0  0  0  0  0  0  0  0  0  0  0
   28.9437   27.8129   31.7669 H   0  0  0  0  0  0  0  0  0  0  0  0
   26.3616   25.9529   32.2110 H   0  0  0  0  0  0  0  0  0  0  0  0
   26.7155   27.6567   31.7927 H   0  0  0  0  0  0  0  0  0  0  0  0
   20.4002   26.4067   34.0911 H   0  0  0  0  0  0  0  0  0  0  0  0
   18.3770   24.8669   35.7194 H   0  0  0  0  0  0  0  0  0  0  0  0
   18.2822   26.6238   36.2387 H   0  0  0  0  0  0  0  0  0  0  0  0
   16.6124   25.3495   37.9187 H   0  0  0  0  0  0  0  0  0  0  0  0
   17.4956   25.6009   39.4672 H   0  0  0  0  0  0  0  0  0  0  0  0
   18.1354   23.1753   39.4947 H   0  0  0  0  0  0  0  0  0  0  0  0
   16.3457   23.3723   39.3772 H   0  0  0  0  0  0  0  0  0  0  0  0
   17.2999   22.9369   37.9063 H   0  0  0  0  0  0  0  0  0  0  0  0
  1  2  1  0
  2  3  2  0
  2  4  1  0
  4  5  2  0
  5  6  1  0
  6  7  2  0
  7  8  1  0
  8  9  2  0
  9 10  1  0
 10 11  2  0
 11 12  1  0
 12 13  2  0
 13 14  1  0
  1 15  1  0
 15 16  2  0
 16 17  1  0
 17 18  2  0
 18 19  1  0
 19 20  1  0
 20 21  1  0
 21 22  2  0
 21 23  1  0
 23 24  2  0
 24 25  1  0
 20 26  1  0
 26 27  1  0
 13  4  1  0
 24 15  1  0
 12  7  1  0
 23 18  1  0
  1 28  1  0
  8 29  1  0
  9 30  1  0
 10 31  1  0
 11 32  1  0
 14 33  1  0
 14 34  1  0
 17 35  1  0
 19 36  1  0
 19 37  1  0
 26 38  1  0
 26 39  1  0
 27 40  1  0
 27 41  1  0
 27 42  1  0
M  END
$$$$
confid_1
     RDKit          3D

 42 45  0  0  0  0  0  0  0  0999 V2000
   24.4800   26.1000   36.1300 N   0  0  0  0  0  0  0  0  0  0  0  0
   25.2500   26.2500   34.9900 C   0  0  0  0  0  0  0  0  0  0  0  0
   24.7400   25.7600   33.9900 O   0  0  0  0  0  0  0  0  0  0  0  0
   26.5900   26.8900   34.9600 C   0  0  0  0  0  0  0  0  0  0  0  0
   27.0600   27.2400   36.1600 N   0  0  0  0  0  0  0  0  0  0  0  0
   28.3000   27.7100   36.2400 N   0  0  0  0  0  0  0  0  0  0  0  0
   29.0500   27.9600   35.1500 C   0  0  0  0  0  0  0  0  0  0  0  0
   30.3400   28.4900   35.2600 C   0  0  0  0  0  0  0  0  0  0  0  0
   31.1100   28.8200   34.1400 C   0  0  0  0  0  0  0  0  0  0  0  0
   30.5200   28.6700   32.8800 C   0  0  0  0  0  0  0  0  0  0  0  0
   29.2900   28.0200   32.7700 C   0  0  0  0  0  0  0  0  0  0  0  0
   28.5200   27.7100   33.8900 C   0  0  0  0  0  0  0  0  0  0  0  0
   27.2700   27.0800   33.7600 C   0  0  0  0  0  0  0  0  0  0  0  0
   26.7500   26.8800   32.4900 N   0  0  0  0  0  0  0  0  0  0  0  0
   23.4945   25.0680   36.3391 C   0  0  0  0  0  0  0  0  0  0  0  0
   23.4361   23.9790   35.5060 N   0  0  0  0  0  0  0  0  0  0  0  0
   22.5352   22.9689   35.6799 C   0  0  0  0  0  0  0  0  0  0  0  0
   21.6448   23.0431   36.7465 C   0  0  0  0  0  0  0  0  0  0  0  0
   20.5790   22.0646   37.1492 C   0  0  0  0  0  0  0  0  0  0  0  0
   19.9805   22.6934   38.3310 N   0  0  0  0  0  0  0  0  0  0  0  0
   20.6658   23.9148   38.5960 C   0  0  0  0  0  0  0  0  0  0  0  0
   20.4146   24.6783   39.5660 O   0  0  0  0  0  0  0  0  0  0  0  0
   21.6885   24.1192   37.6002 C   0  0  0  0  0  0  0  0  0  0  0  0
   22.6050   25.1536   37.4314 C   0  0  0  0  0  0  0  0  0  0  0  0
   22.6300   26.2060   38.2876 F   0  0  0  0  0  0  0  0  0  0  0  0
   18.9242   22.1064   39.1514 C   0  0  0  0  0  0  0  0  0  0  0  0
   17.6285   22.8926   38.9929 C   0  0  0  0  0  0  0  0  0  0  0  0
   24.6501   26.7702   36.9133 H   0  0  0  0  0  0  0  0  0  0  0  0
   30.7580   28.6629   36.2441 H   0  0  0  0  0  0  0  0  0  0  0  0
   32.0983   29.2479   34.2470 H   0  0  0  0  0  0  0  0  0  0  0  0
   31.0669   28.9543   31.9901 H   0  0  0  0  0  0  0  0  0  0  0  0
   28.9258   27.8587   31.7656 H   0  0  0  0  0  0  0  0  0  0  0  0
   25.7673   27.1503   32.2658 H   0  0  0  0  0  0  0  0  0  0  0  0
   27.2969   26.3787   31.7554 H   0  0  0  0  0  0  0  0  0  0  0  0
   22.5196   22.1272   35.0008 H   0  0  0  0  0  0  0  0  0  0  0  0
   19.8214   21.9535   36.3447 H   0  0  0  0  0  0  0  0  0  0  0  0
   21.0303   21.0858   37.4177 H   0  0  0  0  0  0  0  0  0  0  0  0
   19.2374   22.1034   40.2174 H   0  0  0  0  0  0  0  0  0  0  0  0
   18.7469   21.0546   38.8389 H   0  0  0  0  0  0  0  0  0  0  0  0
   17.7635   23.9367   39.3455 H   0  0  0  0  0  0  0  0  0  0  0  0
   16.8267   22.4148   39.5941 H   0  0  0  0  0  0  0  0  0  0  0  0
   17.3189   22.9043   37.9262 H   0  0  0  0  0  0  0  0  0  0  0  0
  1  2  1  0
  2  3  2  0
  2  4  1  0
  4  5  2  0
  5  6  1  0
  6  7  2  0
  7  8  1  0
  8  9  2  0
  9 10  1  0
 10 11  2  0
 11 12  1  0
 12 13  2  0
 13 14  1  0
  1 15  1  0
 15 16  2  0
 16 17  1  0
 17 18  2  0
 18 19  1  0
 19 20  1  0
 20 21  1  0
 21 22  2  0
 21 23  1  0
 23 24  2  0
 24 25  1  0
 20 26  1  0
 26 27  1  0
 13  4  1  0
 24 15  1  0
 12  7  1  0
 23 18  1  0
  1 28  1  0
  8 29  1  0
  9 30  1  0
 10 31  1  0
 11 32  1  0
 14 33  1  0
 14 34  1  0
 17 35  1  0
 19 36  1  0
 19 37  1  0
 26 38  1  0
 26 39  1  0
 27 40  1  0
 27 41  1  0
 27 42  1  0
M  END
$$$$
