confid_0
     RDKit          3D

 44 47  0  0  0  0  0  0  0  0999 V2000
   24.5700   26.8800   35.5900 N   0  0  0  0  0  0  0  0  0  0  0  0
   25.5000   26.4000   34.6900 C   0  0  0  0  0  0  0  0  0  0  0  0
   25.1700   25.5200   33.9100 O   0  0  0  0  0  0  0  0  0  0  0  0
   26.8400   27.0200   34.7400 C   0  0  0  0  0  0  0  0  0  0  0  0
   27.3800   27.2800   35.9400 N   0  0  0  0  0  0  0  0  0  0  0  0
   28.6200   27.7400   36.0300 N   0  0  0  0  0  0  0  0  0  0  0  0
   29.3800   28.0000   34.9600 C   0  0  0  0  0  0  0  0  0  0  0  0
   30.6700   28.5000   35.1300 C   0  0  0  0  0  0  0  0  0  0  0  0
   31.5400   28.6100   34.0300 C   0  0  0  0  0  0  0  0  0  0  0  0
   31.0900   28.2200   32.7700 C   0  0  0  0  0  0  0  0  0  0  0  0
   29.8000   27.7000   32.6000 C   0  0  0  0  0  0  0  0  0  0  0  0
   28.9600   27.5500   33.7100 C   0  0  0  0  0  0  0  0  0  0  0  0
   27.6600   27.0300   33.5900 C   0  0  0  0  0  0  0  0  0  0  0  0
   27.1600   26.7400   32.3400 N   0  0  0  0  0  0  0  0  0  0  0  0
   23.3391   26.1978   35.9053 C   0  0  0  0  0  0  0  0  0  0  0  0
   23.2830   24.8459   35.7923 N   0  0  0  0  0  0  0  0  0  0  0  0
   22.1851   24.1293   36.1264 C   0  0  0  0  0  0  0  0  0  0  0  0
   21.0477   24.7574   36.6462 C   0  0  0  0  0  0  0  0  0  0  0  0
   19.8992   23.8375   37.0530 C   0  0  0  0  0  0  0  0  0  0  0  0
   18.7329   24.4840   37.5228 O   0  0  0  0  0  0  0  0  0  0  0  0
   18.1747   25.3112   36.5214 C   0  0  0  0  0  0  0  0  0  0  0  0
   18.5280   26.7642   36.8214 C   0  0  0  0  0  0  0  0  0  0  0  0
   19.9114   26.8869   37.3937 C   0  0  0  0  0  0  0  0  0  0  0  0
   20.1017   27.6494   38.3797 O   0  0  0  0  0  0  0  0  0  0  0  0
   21.0626   26.1721   36.7930 C   0  0  0  0  0  0  0  0  0  0  0  0
   22.2084   26.9047   36.3764 C   0  0  0  0  0  0  0  0  0  0  0  0
   22.2306   28.4181   36.4195 C   0  0  0  0  0  0  0  0  0  0  0  0
   24.7850   27.7684   36.0974 H   0  0  0  0  0  0  0  0  0  0  0  0
   31.0179   28.7883   36.1144 H   0  0  0  0  0  0  0  0  0  0  0  0
   32.5424   28.9969   34.1597 H   0  0  0  0  0  0  0  0  0  0  0  0
   31.7487   28.3095   31.9157 H   0  0  0  0  0  0  0  0  0  0  0  0
   29.5077   27.3814   31.6086 H   0  0  0  0  0  0  0  0  0  0  0  0
   26.7451   25.8075   32.1268 H   0  0  0  0  0  0  0  0  0  0  0  0
   27.2453   27.4248   31.5562 H   0  0  0  0  0  0  0  0  0  0  0  0
   22.2102   23.0529   36.0099 H   0  0  0  0  0  0  0  0  0  0  0  0
   19.6413   23.1571   36.2093 H   0  0  0  0  0  0  0  0  0  0  0  0
   20.2671   23.1841   37.8722 H   0  0  0  0  0  0  0  0  0  0  0  0
   17.0701   25.1980   36.5445 H   0  0  0  0  0  0  0  0  0  0  0  0
   18.4931   25.0482   35.4835 H   0  0  0  0  0  0  0  0  0  0  0  0
   17.7937   27.1696   37.5520 H   0  0  0  0  0  0  0  0  0  0  0  0
   18.4575   27.3696   35.8926 H   0  0  0  0  0  0  0  0  0  0  0  0
   22.6733   28.7581   37.3788 H   0  0  0  0  0  0  0  0  0  0  0  0
   21.2142   28.8489   36.3103 H   0  0  0  0  0  0  0  0  0  0  0  0
   22.8182   28.8318   35.5736 H   0  0  0  0  0  0  0  0  0  0  0  0
  1  2  1  0
  2  3  2  0
  2  4  1  0
  4  5  2  0
  5  6  1  0
  6  7  2  0
  7  8  1  0
  8  9  2  0
  9 10  1  0
 10 11  2  0
 11 12  1  0
 12 13  2  0
 13 14  1  0
  1 15  1  0
 15 16  2  0
 16 17  1  0
 17 18  2  0
 18 19  1  0
 19 20  1  0
 20 21  1  0
 21 22  1  0
 22 23  1  0
 23 24  2  0
 23 25  1  0
 25 26  2  0
 26 27  1  0
 13  4  1  0
 26 15  1  0
 12  7  1  0
 25 18  1  0
  1 28  1  0
  8 29  1  0
  9 30  1  0
 10 31  1  0
 11 32  1  0
 14 33  1  0
 14 34  1  0
 17 35  1  0
 19 36  1  0
 19 37  1  0
 21 38  1  0
 21 39  1  0
 22 40  1  0
 22 41  1  0
 27 42  1  0
 27 43  1  0
 27 44  1  0
M  END
$$$$
confid_1
     RDKit          3D

 44 47  0  0  0  0  0  0  0  0999 V2000
   24.5700   26.8800   35.5900 N   0  0  0  0  0  0  0  0  0  0  0  0
   25.5000   26.4000   34.6900 C   0  0  0  0  0  0  0  0  0  0  0  0
   25.1700   25.5200   33.9100 O   0  0  0  0  0  0  0  0  0  0  0  0
   26.8400   27.0200   34.7400 C   0  0  0  0  0  0  0  0  0  0  0  0
   27.3800   27.2800   35.9400 N   0  0  0  0  0  0  0  0  0  0  0  0
   28.6200   27.7400   36.0300 N   0  0  0  0  0  0  0  0  0  0  0  0
   29.3800   28.0000   34.9600 C   0  0  0  0  0  0  0  0  0  0  0  0
   30.6700   28.5000   35.1300 C   0  0  0  0  0  0  0  0  0  0  0  0
   31.5400   28.6100   34.0300 C   0  0  0  0  0  0  0  0  0  0  0  0
   31.0900   28.2200   32.7700 C   0  0  0  0  0  0  0  0  0  0  0  0
   29.8000   27.7000   32.6000 C   0  0  0  0  0  0  0  0  0  0  0  0
   28.9600   27.5500   33.7100 C   0  0  0  0  0  0  0  0  0  0  0  0
   27.6600   27.0300   33.5900 C   0  0  0  0  0  0  0  0  0  0  0  0
   27.1600   26.7400   32.3400 N   0  0  0  0  0  0  0  0  0  0  0  0
   23.3391   26.1981   35.9061 C   0  0  0  0  0  0  0  0  0  0  0  0
   23.2780   24.8453   35.7822 N   0  0  0  0  0  0  0  0  0  0  0  0
   22.1792   24.1285   36.1180 C   0  0  0  0  0  0  0  0  0  0  0  0
   21.0502   24.7662   36.6435 C   0  0  0  0  0  0  0  0  0  0  0  0
   19.8787   23.9359   37.1160 C   0  0  0  0  0  0  0  0  0  0  0  0
   18.7065   24.2697   36.3960 O   0  0  0  0  0  0  0  0  0  0  0  0
   17.9646   25.2787   37.0560 C   0  0  0  0  0  0  0  0  0  0  0  0
   18.5294   26.6676   36.7563 C   0  0  0  0  0  0  0  0  0  0  0  0
   19.8862   26.8527   37.3667 C   0  0  0  0  0  0  0  0  0  0  0  0
   20.0201   27.5901   38.3803 O   0  0  0  0  0  0  0  0  0  0  0  0
   21.0665   26.1702   36.7913 C   0  0  0  0  0  0  0  0  0  0  0  0
   22.2120   26.9054   36.3887 C   0  0  0  0  0  0  0  0  0  0  0  0
   22.2376   28.4165   36.4614 C   0  0  0  0  0  0  0  0  0  0  0  0
   24.7843   27.7699   36.0948 H   0  0  0  0  0  0  0  0  0  0  0  0
   31.0178   28.7888   36.1143 H   0  0  0  0  0  0  0  0  0  0  0  0
   32.5416   28.9991   34.1593 H   0  0  0  0  0  0  0  0  0  0  0  0
   31.7454   28.3188   31.9142 H   0  0  0  0  0  0  0  0  0  0  0  0
   29.5013   27.4243   31.5992 H   0  0  0  0  0  0  0  0  0  0  0  0
   27.7096   26.1832   31.6493 H   0  0  0  0  0  0  0  0  0  0  0  0
   26.1711   26.9656   32.0920 H   0  0  0  0  0  0  0  0  0  0  0  0
   22.2018   23.0528   36.0009 H   0  0  0  0  0  0  0  0  0  0  0  0
   20.0781   22.8576   36.9384 H   0  0  0  0  0  0  0  0  0  0  0  0
   19.7738   24.0311   38.2213 H   0  0  0  0  0  0  0  0  0  0  0  0
   17.8720   25.1090   38.1536 H   0  0  0  0  0  0  0  0  0  0  0  0
   16.9282   25.2446   36.6589 H   0  0  0  0  0  0  0  0  0  0  0  0
   18.5975   26.8130   35.6564 H   0  0  0  0  0  0  0  0  0  0  0  0
   17.8327   27.4365   37.1558 H   0  0  0  0  0  0  0  0  0  0  0  0
   22.7038   28.7359   37.4167 H   0  0  0  0  0  0  0  0  0  0  0  0
   21.2202   28.8519   36.3874 H   0  0  0  0  0  0  0  0  0  0  0  0
   22.8072   28.8439   35.6100 H   0  0  0  0  0  0  0  0  0  0  0  0
  1  2  1  0
  2  3  2  0
  2  4  1  0
  4  5  2  0
  5  6  1  0
  6  7  2  0
  7  8  1  0
  8  9  2  0
  9 10  1  0
 10 11  2  0
 11 12  1  0
 12 13  2  0
 13 14  1  0
  1 15  1  0
 15 16  2  0
 16 17  1  0
 17 18  2  0
 18 19  1  0
 19 20  1  0
 20 21  1  0
 21 22  1  0
 22 23  1  0
 23 24  2  0
 23 25  1  0
 25 26  2  0
 26 27  1  0
 13  4  1  0
 26 15  1  0
 12  7  1  0
 25 18  1  0
  1 28  1  0
  8 29  1  0
  9 30  1  0
 10 31  1  0
 11 32  1  0
 14 33  1  0
 14 34  1  0
 17 35  1  0
 19 36  1  0
 19 37  1  0
 21 38  1  0
 21 39  1  0
 22 40  1  0
 22 41  1  0
 27 42  1  0
 27 43  1  0
 27 44  1  0
M  END
$$$$
confid_2
     RDKit          3D

 44 47  0  0  0  0  0  0  0  0999 V2000
   24.5700   26.8800   35.5900 N   0  0  0  0  0  0  0  0  0  0  0  0
   25.5000   26.4000   34.6900 C   0  0  0  0  0  0  0  0  0  0  0  0
   25.1700   25.5200   33.9100 O   0  0  0  0  0  0  0  0  0  0  0  0
   26.8400   27.0200   34.7400 C   0  0  0  0  0  0  0  0  0  0  0  0
   27.3800   27.2800   35.9400 N   0  0  0  0  0  0  0  0  0  0  0  0
   28.6200   27.7400   36.0300 N   0  0  0  0  0  0  0  0  0  0  0  0
   29.3800   28.0000   34.9600 C   0  0  0  0  0  0  0  0  0  0  0  0
   30.6700   28.5000   35.1300 C   0  0  0  0  0  0  0  0  0  0  0  0
   31.5400   28.6100   34.0300 C   0  0  0  0  0  0  0  0  0  0  0  0
   31.0900   28.2200   32.7700 C   0  0  0  0  0  0  0  0  0  0  0  0
   29.8000   27.7000   32.6000 C   0  0  0  0  0  0  0  0  0  0  0  0
   28.9600   27.5500   33.7100 C   0  0  0  0  0  0  0  0  0  0  0  0
   27.6600   27.0300   33.5900 C   0  0  0  0  0  0  0  0  0  0  0  0
   27.1600   26.7400   32.3400 N   0  0  0  0  0  0  0  0  0  0  0  0
   23.1750   26.5131   35.5765 C   0  0  0  0  0  0  0  0  0  0  0  0
   22.5832   26.1919   34.3975 N   0  0  0  0  0  0  0  0  0  0  0  0
   21.2667   25.8970   34.2967 C   0  0  0  0  0  0  0  0  0  0  0  0
   20.4318   25.9440   35.4189 C   0  0  0  0  0  0  0  0  0  0  0  0
   18.9525   25.6612   35.1680 C   0  0  0  0  0  0  0  0  0  0  0  0
   18.1269   25.6531   36.3157 O   0  0  0  0  0  0  0  0  0  0  0  0
   18.5245   24.6398   37.2179 C   0  0  0  0  0  0  0  0  0  0  0  0
   19.3042   25.2727   38.3658 C   0  0  0  0  0  0  0  0  0  0  0  0
   20.1606   26.4104   37.8878 C   0  0  0  0  0  0  0  0  0  0  0  0
   20.1943   27.4767   38.5597 O   0  0  0  0  0  0  0  0  0  0  0  0
   21.0041   26.2866   36.6751 C   0  0  0  0  0  0  0  0  0  0  0  0
   22.4021   26.5335   36.7604 C   0  0  0  0  0  0  0  0  0  0  0  0
   23.0707   26.8054   38.0916 C   0  0  0  0  0  0  0  0  0  0  0  0
   24.8726   27.5923   36.2926 H   0  0  0  0  0  0  0  0  0  0  0  0
   31.0178   28.7888   36.1143 H   0  0  0  0  0  0  0  0  0  0  0  0
   32.5416   28.9991   34.1593 H   0  0  0  0  0  0  0  0  0  0  0  0
   31.7454   28.3188   31.9142 H   0  0  0  0  0  0  0  0  0  0  0  0
   29.5013   27.4243   31.5992 H   0  0  0  0  0  0  0  0  0  0  0  0
   26.1710   26.9652   32.0922 H   0  0  0  0  0  0  0  0  0  0  0  0
   27.7097   26.1833   31.6492 H   0  0  0  0  0  0  0  0  0  0  0  0
   20.8613   25.6486   33.3237 H   0  0  0  0  0  0  0  0  0  0  0  0
   18.5697   26.4542   34.4915 H   0  0  0  0  0  0  0  0  0  0  0  0
   18.8388   24.7019   34.6129 H   0  0  0  0  0  0  0  0  0  0  0  0
   17.6135   24.1538   37.6273 H   0  0  0  0  0  0  0  0  0  0  0  0
   19.1289   23.8251   36.7504 H   0  0  0  0  0  0  0  0  0  0  0  0
   18.5839   25.6519   39.1239 H   0  0  0  0  0  0  0  0  0  0  0  0
   19.9449   24.5078   38.8541 H   0  0  0  0  0  0  0  0  0  0  0  0
   22.5393   26.3061   38.9276 H   0  0  0  0  0  0  0  0  0  0  0  0
   23.1032   27.8993   38.2766 H   0  0  0  0  0  0  0  0  0  0  0  0
   24.1027   26.3969   38.1112 H   0  0  0  0  0  0  0  0  0  0  0  0
  1  2  1  0
  2  3  2  0
  2  4  1  0
  4  5  2  0
  5  6  1  0
  6  7  2  0
  7  8  1  0
  8  9  2  0
  9 10  1  0
 10 11  2  0
 11 12  1  0
 12 13  2  0
 13 14  1  0
  1 15  1  0
 15 16  2  0
 16 17  1  0
 17 18  2  0
 18 19  1  0
 19 20  1  0
 20 21  1  0
 21 22  1  0
 22 23  1  0
 23 24  2  0
 23 25  1  0
 25 26  2  0
 26 27  1  0
 13  4  1  0
 26 15  1  0
 12  7  1  0
 25 18  1  0
  1 28  1  0
  8 29  1  0
  9 30  1  0
 10 31  1  0
 11 32  1  0
 14 33  1  0
 14 34  1  0
 17 35  1  0
 19 36  1  0
 19 37  1  0
 21 38  1  0
 21 39  1  0
 22 40  1  0
 22 41  1  0
 27 42  1  0
 27 43  1  0
 27 44  1  0
M  END
$$$$
confid_3
     RDKit          3D

 44 47  0  0  0  0  0  0  0  0999 V2000
   24.5700   26.8800   35.5900 N   0  0  0  0  0  0  0  0  0  0  0  0
   25.5000   26.4000   34.6900 C   0  0  0  0  0  0  0  0  0  0  0  0
   25.1700   25.5200   33.9100 O   0  0  0  0  0  0  0  0  0  0  0  0
   26.8400   27.0200   34.7400 C   0  0  0  0  0  0  0  0  0  0  0  0
   27.3800   27.2800   35.9400 N   0  0  0  0  0  0  0  0  0  0  0  0
   28.6200   27.7400   36.0300 N   0  0  0  0  0  0  0  0  0  0  0  0
   29.3800   28.0000   34.9600 C   0  0  0  0  0  0  0  0  0  0  0  0
   30.6700   28.5000   35.1300 C   0  0  0  0  0  0  0  0  0  0  0  0
   31.5400   28.6100   34.0300 C   0  0  0  0  0  0  0  0  0  0  0  0
   31.0900   28.2200   32.7700 C   0  0  0  0  0  0  0  0  0  0  0  0
   29.8000   27.7000   32.6000 C   0  0  0  0  0  0  0  0  0  0  0  0
   28.9600   27.5500   33.7100 C   0  0  0  0  0  0  0  0  0  0  0  0
   27.6600   27.0300   33.5900 C   0  0  0  0  0  0  0  0  0  0  0  0
   27.1600   26.7400   32.3400 N   0  0  0  0  0  0  0  0  0  0  0  0
   23.1757   26.5101   35.5802 C   0  0  0  0  0  0  0  0  0  0  0  0
   22.5833   26.1731   34.4035 N   0  0  0  0  0  0  0  0  0  0  0  0
   21.2656   25.8760   34.3062 C   0  0  0  0  0  0  0  0  0  0  0  0
   20.4407   25.9336   35.4348 C   0  0  0  0  0  0  0  0  0  0  0  0
   18.9538   25.7082   35.2824 C   0  0  0  0  0  0  0  0  0  0  0  0
   18.5338   24.6011   36.0581 O   0  0  0  0  0  0  0  0  0  0  0  0
   18.1100   25.0046   37.3471 C   0  0  0  0  0  0  0  0  0  0  0  0
   19.3006   25.1954   38.2874 C   0  0  0  0  0  0  0  0  0  0  0  0
   20.1441   26.3646   37.8761 C   0  0  0  0  0  0  0  0  0  0  0  0
   20.1105   27.4279   38.5524 O   0  0  0  0  0  0  0  0  0  0  0  0
   21.0105   26.2799   36.6793 C   0  0  0  0  0  0  0  0  0  0  0  0
   22.4027   26.5423   36.7653 C   0  0  0  0  0  0  0  0  0  0  0  0
   23.0609   26.8450   38.0935 C   0  0  0  0  0  0  0  0  0  0  0  0
   24.8730   27.5928   36.2918 H   0  0  0  0  0  0  0  0  0  0  0  0
   31.0179   28.7883   36.1144 H   0  0  0  0  0  0  0  0  0  0  0  0
   32.5424   28.9969   34.1597 H   0  0  0  0  0  0  0  0  0  0  0  0
   31.7487   28.3095   31.9157 H   0  0  0  0  0  0  0  0  0  0  0  0
   29.5077   27.3813   31.6086 H   0  0  0  0  0  0  0  0  0  0  0  0
   27.2453   27.4248   31.5561 H   0  0  0  0  0  0  0  0  0  0  0  0
   26.7446   25.8077   32.1268 H   0  0  0  0  0  0  0  0  0  0  0  0
   20.8577   25.6231   33.3360 H   0  0  0  0  0  0  0  0  0  0  0  0
   18.4068   26.6526   35.5076 H   0  0  0  0  0  0  0  0  0  0  0  0
   18.7084   25.4800   34.2233 H   0  0  0  0  0  0  0  0  0  0  0  0
   17.4814   24.1887   37.7623 H   0  0  0  0  0  0  0  0  0  0  0  0
   17.4585   25.9086   37.3325 H   0  0  0  0  0  0  0  0  0  0  0  0
   18.9243   25.3526   39.3217 H   0  0  0  0  0  0  0  0  0  0  0  0
   19.9238   24.2750   38.2913 H   0  0  0  0  0  0  0  0  0  0  0  0
   24.0898   26.4303   38.1307 H   0  0  0  0  0  0  0  0  0  0  0  0
   22.5183   26.3744   38.9389 H   0  0  0  0  0  0  0  0  0  0  0  0
   23.0992   27.9434   38.2487 H   0  0  0  0  0  0  0  0  0  0  0  0
  1  2  1  0
  2  3  2  0
  2  4  1  0
  4  5  2  0
  5  6  1  0
  6  7  2  0
  7  8  1  0
  8  9  2  0
  9 10  1  0
 10 11  2  0
 11 12  1  0
 12 13  2  0
 13 14  1  0
  1 15  1  0
 15 16  2  0
 16 17  1  0
 17 18  2  0
 18 19  1  0
 19 20  1  0
 20 21  1  0
 21 22  1  0
 22 23  1  0
 23 24  2  0
 23 25  1  0
 25 26  2  0
 26 27  1  0
 13  4  1  0
 26 15  1  0
 12  7  1  0
 25 18  1  0
  1 28  1  0
  8 29  1  0
  9 30  1  0
 10 31  1  0
 11 32  1  0
 14 33  1  0
 14 34  1  0
 17 35  1  0
 19 36  1  0
 19 37  1  0
 21 38  1  0
 21 39  1  0
 22 40  1  0
 22 41  1  0
 27 42  1  0
 27 43  1  0
 27 44  1  0
M  END
$$$$
confid_4
     RDKit          3D

 44 47  0  0  0  0  0  0  0  0999 V2000
   24.5700   26.8800   35.5900 N   0  0  0  0  0  0  0  0  0  0  0  0
   25.5000   26.4000   34.6900 C   0  0  0  0  0  0  0  0  0  0  0  0
   25.1700   25.5200   33.9100 O   0  0  0  0  0  0  0  0  0  0  0  0
   26.8400   27.0200   34.7400 C   0  0  0  0  0  0  0  0  0  0  0  0
   27.3800   27.2800   35.9400 N   0  0  0  0  0  0  0  0  0  0  0  0
   28.6200   27.7400   36.0300 N   0  0  0  0  0  0  0  0  0  0  0  0
   29.3800   28.0000   34.9600 C   0  0  0  0  0  0  0  0  0  0  0  0
   30.6700   28.5000   35.1300 C   0  0  0  0  0  0  0  0  0  0  0  0
   31.5400   28.6100   34.0300 C   0  0  0  0  0  0  0  0  0  0  0  0
   31.0900   28.2200   32.7700 C   0  0  0  0  0  0  0  0  0  0  0  0
   29.8000   27.7000   32.6000 C   0  0  0  0  0  0  0  0  0  0  0  0
   28.9600   27.5500   33.7100 C   0  0  0  0  0  0  0  0  0  0  0  0
   27.6600   27.0300   33.5900 C   0  0  0  0  0  0  0  0  0  0  0  0
   27.1600   26.7400   32.3400 N   0  0  0  0  0  0  0  0  0  0  0  0
   23.3455   26.1957   35.9499 C   0  0  0  0  0  0  0  0  0  0  0  0
   23.1300   24.9313   35.4968 N   0  0  0  0  0  0  0  0  0  0  0  0
   22.0072   24.2288   35.7751 C   0  0  0  0  0  0  0  0  0  0  0  0
   20.9913   24.7965   36.5483 C   0  0  0  0  0  0  0  0  0  0  0  0
   19.7075   24.0295   36.7714 C   0  0  0  0  0  0  0  0  0  0  0  0
   19.5043   23.7894   38.1518 O   0  0  0  0  0  0  0  0  0  0  0  0
   18.7244   24.8115   38.7454 C   0  0  0  0  0  0  0  0  0  0  0  0
   19.5768   26.0354   39.0851 C   0  0  0  0  0  0  0  0  0  0  0  0
   20.0769   26.7133   37.8456 C   0  0  0  0  0  0  0  0  0  0  0  0
   19.5449   27.7901   37.4626 O   0  0  0  0  0  0  0  0  0  0  0  0
   21.1647   26.1044   37.0494 C   0  0  0  0  0  0  0  0  0  0  0  0
   22.3692   26.8093   36.7787 C   0  0  0  0  0  0  0  0  0  0  0  0
   22.6316   28.1777   37.3723 C   0  0  0  0  0  0  0  0  0  0  0  0
   24.7755   27.8080   36.0206 H   0  0  0  0  0  0  0  0  0  0  0  0
   31.0178   28.7888   36.1143 H   0  0  0  0  0  0  0  0  0  0  0  0
   32.5416   28.9992   34.1594 H   0  0  0  0  0  0  0  0  0  0  0  0
   31.7455   28.3189   31.9142 H   0  0  0  0  0  0  0  0  0  0  0  0
   29.5013   27.4243   31.5992 H   0  0  0  0  0  0  0  0  0  0  0  0
   26.1715   26.9673   32.0916 H   0  0  0  0  0  0  0  0  0  0  0  0
   27.7095   26.1833   31.6492 H   0  0  0  0  0  0  0  0  0  0  0  0
   21.9012   23.2303   35.3701 H   0  0  0  0  0  0  0  0  0  0  0  0
   19.7606   23.0401   36.2690 H   0  0  0  0  0  0  0  0  0  0  0  0
   18.8628   24.5603   36.2748 H   0  0  0  0  0  0  0  0  0  0  0  0
   17.8369   25.0952   38.1346 H   0  0  0  0  0  0  0  0  0  0  0  0
   18.3183   24.4107   39.6980 H   0  0  0  0  0  0  0  0  0  0  0  0
   18.9672   26.7496   39.6806 H   0  0  0  0  0  0  0  0  0  0  0  0
   20.4415   25.7254   39.7109 H   0  0  0  0  0  0  0  0  0  0  0  0
   21.8833   28.4816   38.1291 H   0  0  0  0  0  0  0  0  0  0  0  0
   23.6068   28.1795   37.9019 H   0  0  0  0  0  0  0  0  0  0  0  0
   22.6422   28.9398   36.5652 H   0  0  0  0  0  0  0  0  0  0  0  0
  1  2  1  0
  2  3  2  0
  2  4  1  0
  4  5  2  0
  5  6  1  0
  6  7  2  0
  7  8  1  0
  8  9  2  0
  9 10  1  0
 10 11  2  0
 11 12  1  0
 12 13  2  0
 13 14  1  0
  1 15  1  0
 15 16  2  0
 16 17  1  0
 17 18  2  0
 18 19  1  0
 19 20  1  0
 20 21  1  0
 21 22  1  0
 22 23  1  0
 23 24  2  0
 23 25  1  0
 25 26  2  0
 26 27  1  0
 13  4  1  0
 26 15  1  0
 12  7  1  0
 25 18  1  0
  1 28  1  0
  8 29  1  0
  9 30  1  0
 10 31  1  0
 11 32  1  0
 14 33  1  0
 14 34  1  0
 17 35  1  0
 19 36  1  0
 19 37  1  0
 21 38  1  0
 21 39  1  0
 22 40  1  0
 22 41  1  0
 27 42  1  0
 27 43  1  0
 27 44  1  0
M  END
$$$$
confid_5
     RDKit          3D

 44 47  0  0  0  0  0  0  0  0999 V2000
   24.5700   26.8800   35.5900 N   0  0  0  0  0  0  0  0  0  0  0  0
   25.5000   26.4000   34.6900 C   0  0  0  0  0  0  0  0  0  0  0  0
   25.1700   25.5200   33.9100 O   0  0  0  0  0  0  0  0  0  0  0  0
   26.8400   27.0200   34.7400 C   0  0  0  0  0  0  0  0  0  0  0  0
   27.3800   27.2800   35.9400 N   0  0  0  0  0  0  0  0  0  0  0  0
   28.6200   27.7400   36.0300 N   0  0  0  0  0  0  0  0  0  0  0  0
   29.3800   28.0000   34.9600 C   0  0  0  0  0  0  0  0  0  0  0  0
   30.6700   28.5000   35.1300 C   0  0  0  0  0  0  0  0  0  0  0  0
   31.5400   28.6100   34.0300 C   0  0  0  0  0  0  0  0  0  0  0  0
   31.0900   28.2200   32.7700 C   0  0  0  0  0  0  0  0  0  0  0  0
   29.8000   27.7000   32.6000 C   0  0  0  0  0  0  0  0  0  0  0  0
   28.9600   27.5500   33.7100 C   0  0  0  0  0  0  0  0  0  0  0  0
   27.6600   27.0300   33.5900 C   0  0  0  0  0  0  0  0  0  0  0  0
   27.1600   26.7400   32.3400 N   0  0  0  0  0  0  0  0  0  0  0  0
   23.5386   26.0535   36.1655 C   0  0  0  0  0  0  0  0  0  0  0  0
   23.6726   24.7017   36.1138 N   0  0  0  0  0  0  0  0  0  0  0  0
   22.7941   23.8551   36.6981 C   0  0  0  0  0  0  0  0  0  0  0  0
   21.6953   24.3546   37.4037 C   0  0  0  0  0  0  0  0  0  0  0  0
   20.7316   23.3996   38.0639 C   0  0  0  0  0  0  0  0  0  0  0  0
   20.7646   23.5663   39.4698 O   0  0  0  0  0  0  0  0  0  0  0  0
   19.7813   24.4878   39.9092 C   0  0  0  0  0  0  0  0  0  0  0  0
   20.2247   25.9380   39.6990 C   0  0  0  0  0  0  0  0  0  0  0  0
   20.3544   26.2649   38.2463 C   0  0  0  0  0  0  0  0  0  0  0  0
   19.4455   26.9122   37.6664 O   0  0  0  0  0  0  0  0  0  0  0  0
   21.5045   25.7502   37.4768 C   0  0  0  0  0  0  0  0  0  0  0  0
   22.4311   26.6206   36.8456 C   0  0  0  0  0  0  0  0  0  0  0  0
   22.3054   28.1241   36.9498 C   0  0  0  0  0  0  0  0  0  0  0  0
   24.6913   27.8578   35.9351 H   0  0  0  0  0  0  0  0  0  0  0  0
   31.0177   28.7889   36.1144 H   0  0  0  0  0  0  0  0  0  0  0  0
   32.5418   28.9987   34.1591 H   0  0  0  0  0  0  0  0  0  0  0  0
   31.7459   28.3180   31.9144 H   0  0  0  0  0  0  0  0  0  0  0  0
   29.5012   27.4235   31.5995 H   0  0  0  0  0  0  0  0  0  0  0  0
   27.7098   26.1806   31.6512 H   0  0  0  0  0  0  0  0  0  0  0  0
   26.1667   26.9487   32.0972 H   0  0  0  0  0  0  0  0  0  0  0  0
   22.9657   22.7898   36.6223 H   0  0  0  0  0  0  0  0  0  0  0  0
   19.7182   23.5186   37.6206 H   0  0  0  0  0  0  0  0  0  0  0  0
   21.0207   22.3501   37.8428 H   0  0  0  0  0  0  0  0  0  0  0  0
   18.7822   24.3006   39.4556 H   0  0  0  0  0  0  0  0  0  0  0  0
   19.6482   24.3374   40.9989 H   0  0  0  0  0  0  0  0  0  0  0  0
   21.1974   26.1104   40.1991 H   0  0  0  0  0  0  0  0  0  0  0  0
   19.4841   26.6170   40.1661 H   0  0  0  0  0  0  0  0  0  0  0  0
   21.3259   28.4622   37.3309 H   0  0  0  0  0  0  0  0  0  0  0  0
   22.4394   28.5862   35.9500 H   0  0  0  0  0  0  0  0  0  0  0  0
   23.0837   28.5117   37.6374 H   0  0  0  0  0  0  0  0  0  0  0  0
  1  2  1  0
  2  3  2  0
  2  4  1  0
  4  5  2  0
  5  6  1  0
  6  7  2  0
  7  8  1  0
  8  9  2  0
  9 10  1  0
 10 11  2  0
 11 12  1  0
 12 13  2  0
 13 14  1  0
  1 15  1  0
 15 16  2  0
 16 17  1  0
 17 18  2  0
 18 19  1  0
 19 20  1  0
 20 21  1  0
 21 22  1  0
 22 23  1  0
 23 24  2  0
 23 25  1  0
 25 26  2  0
 26 27  1  0
 13  4  1  0
 26 15  1  0
 12  7  1  0
 25 18  1  0
  1 28  1  0
  8 29  1  0
  9 30  1  0
 10 31  1  0
 11 32  1  0
 14 33  1  0
 14 34  1  0
 17 35  1  0
 19 36  1  0
 19 37  1  0
 21 38  1  0
 21 39  1  0
 22 40  1  0
 22 41  1  0
 27 42  1  0
 27 43  1  0
 27 44  1  0
M  END
$$$$
confid_6
     RDKit          3D

 44 47  0  0  0  0  0  0  0  0999 V2000
   24.5700   26.8800   35.5900 N   0  0  0  0  0  0  0  0  0  0  0  0
   25.5000   26.4000   34.6900 C   0  0  0  0  0  0  0  0  0  0  0  0
   25.1700   25.5200   33.9100 O   0  0  0  0  0  0  0  0  0  0  0  0
   26.8400   27.0200   34.7400 C   0  0  0  0  0  0  0  0  0  0  0  0
   27.3800   27.2800   35.9400 N   0  0  0  0  0  0  0  0  0  0  0  0
   28.6200   27.7400   36.0300 N   0  0  0  0  0  0  0  0  0  0  0  0
   29.3800   28.0000   34.9600 C   0  0  0  0  0  0  0  0  0  0  0  0
   30.6700   28.5000   35.1300 C   0  0  0  0  0  0  0  0  0  0  0  0
   31.5400   28.6100   34.0300 C   0  0  0  0  0  0  0  0  0  0  0  0
   31.0900   28.2200   32.7700 C   0  0  0  0  0  0  0  0  0  0  0  0
   29.8000   27.7000   32.6000 C   0  0  0  0  0  0  0  0  0  0  0  0
   28.9600   27.5500   33.7100 C   0  0  0  0  0  0  0  0  0  0  0  0
   27.6600   27.0300   33.5900 C   0  0  0  0  0  0  0  0  0  0  0  0
   27.1600   26.7400   32.3400 N   0  0  0  0  0  0  0  0  0  0  0  0
   23.2597   26.3082   35.8053 C   0  0  0  0  0  0  0  0  0  0  0  0
   22.6849   25.5577   34.8279 N   0  0  0  0  0  0  0  0  0  0  0  0
   21.4412   25.0319   34.9384 C   0  0  0  0  0  0  0  0  0  0  0  0
   20.6710   25.2713   36.0797 C   0  0  0  0  0  0  0  0  0  0  0  0
   19.2483   24.7643   36.1395 C   0  0  0  0  0  0  0  0  0  0  0  0
   19.0797   23.8757   37.2274 O   0  0  0  0  0  0  0  0  0  0  0  0
   18.6394   24.5568   38.3873 C   0  0  0  0  0  0  0  0  0  0  0  0
   19.8081   25.2143   39.1230 C   0  0  0  0  0  0  0  0  0  0  0  0
   20.4025   26.3347   38.3228 C   0  0  0  0  0  0  0  0  0  0  0  0
   20.2056   27.5298   38.6802 O   0  0  0  0  0  0  0  0  0  0  0  0
   21.2203   26.0491   37.1210 C   0  0  0  0  0  0  0  0  0  0  0  0
   22.5456   26.5459   37.0036 C   0  0  0  0  0  0  0  0  0  0  0  0
   23.1957   27.3082   38.1383 C   0  0  0  0  0  0  0  0  0  0  0  0
   24.8225   27.7364   36.1336 H   0  0  0  0  0  0  0  0  0  0  0  0
   31.0179   28.7883   36.1143 H   0  0  0  0  0  0  0  0  0  0  0  0
   32.5423   28.9967   34.1597 H   0  0  0  0  0  0  0  0  0  0  0  0
   31.7488   28.3092   31.9158 H   0  0  0  0  0  0  0  0  0  0  0  0
   29.5078   27.3810   31.6085 H   0  0  0  0  0  0  0  0  0  0  0  0
   27.2437   27.4258   31.5566 H   0  0  0  0  0  0  0  0  0  0  0  0
   26.7483   25.8064   32.1262 H   0  0  0  0  0  0  0  0  0  0  0  0
   21.0455   24.4489   34.1180 H   0  0  0  0  0  0  0  0  0  0  0  0
   18.5433   25.6270   36.1467 H   0  0  0  0  0  0  0  0  0  0  0  0
   19.0038   24.2028   35.2137 H   0  0  0  0  0  0  0  0  0  0  0  0
   17.8265   25.2912   38.1825 H   0  0  0  0  0  0  0  0  0  0  0  0
   18.1955   23.8025   39.0698 H   0  0  0  0  0  0  0  0  0  0  0  0
   20.5922   24.4557   39.3348 H   0  0  0  0  0  0  0  0  0  0  0  0
   19.4453   25.6073   40.0972 H   0  0  0  0  0  0  0  0  0  0  0  0
   23.0867   28.3980   37.9682 H   0  0  0  0  0  0  0  0  0  0  0  0
   24.2717   27.0521   38.2217 H   0  0  0  0  0  0  0  0  0  0  0  0
   22.7560   27.0464   39.1184 H   0  0  0  0  0  0  0  0  0  0  0  0
  1  2  1  0
  2  3  2  0
  2  4  1  0
  4  5  2  0
  5  6  1  0
  6  7  2  0
  7  8  1  0
  8  9  2  0
  9 10  1  0
 10 11  2  0
 11 12  1  0
 12 13  2  0
 13 14  1  0
  1 15  1  0
 15 16  2  0
 16 17  1  0
 17 18  2  0
 18 19  1  0
 19 20  1  0
 20 21  1  0
 21 22  1  0
 22 23  1  0
 23 24  2  0
 23 25  1  0
 25 26  2  0
 26 27  1  0
 13  4  1  0
 26 15  1  0
 12  7  1  0
 25 18  1  0
  1 28  1  0
  8 29  1  0
  9 30  1  0
 10 31  1  0
 11 32  1  0
 14 33  1  0
 14 34  1  0
 17 35  1  0
 19 36  1  0
 19 37  1  0
 21 38  1  0
 21 39  1  0
 22 40  1  0
 22 41  1  0
 27 42  1  0
 27 43  1  0
 27 44  1  0
M  END
$$$$
