confid_0
     RDKit          3D

 48 51  0  0  0  0  0  0  0  0999 V2000
   24.5500   26.3900   36.2500 N   0  0  0  0  0  0  0  0  0  0  0  0
   25.6000   26.1300   35.4000 C   0  0  0  0  0  0  0  0  0  0  0  0
   25.4300   25.4300   34.4200 O   0  0  0  0  0  0  0  0  0  0  0  0
   26.9800   26.6300   35.7100 C   0  0  0  0  0  0  0  0  0  0  0  0
   27.3200   26.8200   36.9800 N   0  0  0  0  0  0  0  0  0  0  0  0
   28.4700   27.4000   37.3100 N   0  0  0  0  0  0  0  0  0  0  0  0
   29.4000   27.6300   36.3700 C   0  0  0  0  0  0  0  0  0  0  0  0
   30.6600   28.0500   36.8000 C   0  0  0  0  0  0  0  0  0  0  0  0
   31.5700   28.3600   35.7800 C   0  0  0  0  0  0  0  0  0  0  0  0
   31.3700   28.1000   34.4300 C   0  0  0  0  0  0  0  0  0  0  0  0
   30.1200   27.5900   34.0500 C   0  0  0  0  0  0  0  0  0  0  0  0
   29.1500   27.3400   35.0300 C   0  0  0  0  0  0  0  0  0  0  0  0
   27.8800   26.8900   34.6600 C   0  0  0  0  0  0  0  0  0  0  0  0
   27.4800   26.6100   33.3700 N   0  0  0  0  0  0  0  0  0  0  0  0
   30.9928   28.2762   38.2243 C   0  0  0  0  0  0  0  0  0  0  0  0
   31.2021   27.1637   39.0491 C   0  0  0  0  0  0  0  0  0  0  0  0
   31.5230   27.3328   40.4004 C   0  0  0  0  0  0  0  0  0  0  0  0
   31.7077   26.1384   41.3011 C   0  0  0  0  0  0  0  0  0  0  0  0
   32.6474   26.4337   42.3918 N   0  0  0  0  0  0  0  0  0  0  0  0
   32.7043   27.7579   42.9561 C   0  0  0  0  0  0  0  0  0  0  0  0
   33.4329   27.9939   43.9581 O   0  0  0  0  0  0  0  0  0  0  0  0
   31.8661   28.8617   42.3818 C   0  0  0  0  0  0  0  0  0  0  0  0
   31.6027   28.6341   40.9214 C   0  0  0  0  0  0  0  0  0  0  0  0
   31.3710   29.7012   40.1117 N   0  0  0  0  0  0  0  0  0  0  0  0
   31.0877   29.5705   38.7866 C   0  0  0  0  0  0  0  0  0  0  0  0
   30.7921   30.8214   37.9995 C   0  0  0  0  0  0  0  0  0  0  0  0
   29.2946   31.1097   37.9769 C   0  0  0  0  0  0  0  0  0  0  0  0
   33.4352   25.3543   42.9912 C   0  0  0  0  0  0  0  0  0  0  0  0
   23.6001   26.0039   36.0504 H   0  0  0  0  0  0  0  0  0  0  0  0
   24.6739   26.9932   37.0933 H   0  0  0  0  0  0  0  0  0  0  0  0
   32.5362   28.7585   36.0652 H   0  0  0  0  0  0  0  0  0  0  0  0
   32.1367   28.3119   33.6959 H   0  0  0  0  0  0  0  0  0  0  0  0
   29.9367   27.3917   33.0017 H   0  0  0  0  0  0  0  0  0  0  0  0
   27.5827   27.3393   32.6301 H   0  0  0  0  0  0  0  0  0  0  0  0
   27.4182   25.6173   33.0515 H   0  0  0  0  0  0  0  0  0  0  0  0
   31.1159   26.1648   38.6368 H   0  0  0  0  0  0  0  0  0  0  0  0
   30.7233   25.8626   41.7352 H   0  0  0  0  0  0  0  0  0  0  0  0
   32.0788   25.2774   40.7028 H   0  0  0  0  0  0  0  0  0  0  0  0
   30.8976   28.9005   42.9232 H   0  0  0  0  0  0  0  0  0  0  0  0
   32.3886   29.8334   42.5180 H   0  0  0  0  0  0  0  0  0  0  0  0
   31.1733   30.7449   36.9614 H   0  0  0  0  0  0  0  0  0  0  0  0
   31.3140   31.6829   38.4699 H   0  0  0  0  0  0  0  0  0  0  0  0
   29.1070   32.0558   37.4269 H   0  0  0  0  0  0  0  0  0  0  0  0
   28.9069   31.2174   39.0125 H   0  0  0  0  0  0  0  0  0  0  0  0
   28.7479   30.2907   37.4651 H   0  0  0  0  0  0  0  0  0  0  0  0
   33.1807   25.2557   44.0677 H   0  0  0  0  0  0  0  0  0  0  0  0
   34.5173   25.5812   42.8892 H   0  0  0  0  0  0  0  0  0  0  0  0
   33.2306   24.3809   42.4969 H   0  0  0  0  0  0  0  0  0  0  0  0
  1  2  1  0
  2  3  2  0
  2  4  1  0
  4  5  2  0
  5  6  1  0
  6  7  2  0
  7  8  1  0
  8  9  2  0
  9 10  1  0
 10 11  2  0
 11 12  1  0
 12 13  2  0
 13 14  1  0
  8 15  1  0
 15 16  2  0
 16 17  1  0
 17 18  1  0
 18 19  1  0
 19 20  1  0
 20 21  2  0
 20 22  1  0
 22 23  1  0
 23 24  1  0
 24 25  2  0
 25 26  1  0
 26 27  1  0
 19 28  1  0
 13  4  1  0
 25 15  1  0
 12  7  1  0
 23 17  2  0
  1 29  1  0
  1 30  1  0
  9 31  1  0
 10 32  1  0
 11 33  1  0
 14 34  1  0
 14 35  1  0
 16 36  1  0
 18 37  1  0
 18 38  1  0
 22 39  1  0
 22 40  1  0
 26 41  1  0
 26 42  1  0
 27 43  1  0
 27 44  1  0
 27 45  1  0
 28 46  1  0
 28 47  1  0
 28 48  1  0
M  END
$$$$
confid_1
     RDKit          3D

 48 51  0  0  0  0  0  0  0  0999 V2000
   24.5500   26.3900   36.2500 N   0  0  0  0  0  0  0  0  0  0  0  0
   25.6000   26.1300   35.4000 C   0  0  0  0  0  0  0  0  0  0  0  0
   25.4300   25.4300   34.4200 O   0  0  0  0  0  0  0  0  0  0  0  0
   26.9800   26.6300   35.7100 C   0  0  0  0  0  0  0  0  0  0  0  0
   27.3200   26.8200   36.9800 N   0  0  0  0  0  0  0  0  0  0  0  0
   28.4700   27.4000   37.3100 N   0  0  0  0  0  0  0  0  0  0  0  0
   29.4000   27.6300   36.3700 C   0  0  0  0  0  0  0  0  0  0  0  0
   30.6600   28.0500   36.8000 C   0  0  0  0  0  0  0  0  0  0  0  0
   31.5700   28.3600   35.7800 C   0  0  0  0  0  0  0  0  0  0  0  0
   31.3700   28.1000   34.4300 C   0  0  0  0  0  0  0  0  0  0  0  0
   30.1200   27.5900   34.0500 C   0  0  0  0  0  0  0  0  0  0  0  0
   29.1500   27.3400   35.0300 C   0  0  0  0  0  0  0  0  0  0  0  0
   27.8800   26.8900   34.6600 C   0  0  0  0  0  0  0  0  0  0  0  0
   27.4800   26.6100   33.3700 N   0  0  0  0  0  0  0  0  0  0  0  0
   30.9925   28.3024   38.2184 C   0  0  0  0  0  0  0  0  0  0  0  0
   31.7764   27.3649   38.9016 C   0  0  0  0  0  0  0  0  0  0  0  0
   32.1041   27.5622   40.2476 C   0  0  0  0  0  0  0  0  0  0  0  0
   32.9793   26.5757   40.9777 C   0  0  0  0  0  0  0  0  0  0  0  0
   32.6639   26.5451   42.4129 N   0  0  0  0  0  0  0  0  0  0  0  0
   32.2467   27.7490   43.0852 C   0  0  0  0  0  0  0  0  0  0  0  0
   32.0733   27.7553   44.3343 O   0  0  0  0  0  0  0  0  0  0  0  0
   32.0522   29.0191   42.3106 C   0  0  0  0  0  0  0  0  0  0  0  0
   31.6597   28.7287   40.8909 C   0  0  0  0  0  0  0  0  0  0  0  0
   30.9208   29.6395   40.2036 N   0  0  0  0  0  0  0  0  0  0  0  0
   30.5596   29.4610   38.9034 C   0  0  0  0  0  0  0  0  0  0  0  0
   29.7807   30.5589   38.2259 C   0  0  0  0  0  0  0  0  0  0  0  0
   30.7205   31.5704   37.5789 C   0  0  0  0  0  0  0  0  0  0  0  0
   32.8901   25.3222   43.1865 C   0  0  0  0  0  0  0  0  0  0  0  0
   24.6739   26.9934   37.0932 H   0  0  0  0  0  0  0  0  0  0  0  0
   23.6001   26.0038   36.0505 H   0  0  0  0  0  0  0  0  0  0  0  0
   32.5320   28.7687   36.0649 H   0  0  0  0  0  0  0  0  0  0  0  0
   32.1339   28.3194   33.6952 H   0  0  0  0  0  0  0  0  0  0  0  0
   29.9373   27.4179   32.9983 H   0  0  0  0  0  0  0  0  0  0  0  0
   26.5962   27.0149   32.9874 H   0  0  0  0  0  0  0  0  0  0  0  0
   28.1243   26.1389   32.6978 H   0  0  0  0  0  0  0  0  0  0  0  0
   32.1285   26.4794   38.3848 H   0  0  0  0  0  0  0  0  0  0  0  0
   34.0409   26.8742   40.8461 H   0  0  0  0  0  0  0  0  0  0  0  0
   32.8442   25.5634   40.5373 H   0  0  0  0  0  0  0  0  0  0  0  0
   33.0015   29.5948   42.3140 H   0  0  0  0  0  0  0  0  0  0  0  0
   31.2626   29.6327   42.7964 H   0  0  0  0  0  0  0  0  0  0  0  0
   29.1543   31.0830   38.9799 H   0  0  0  0  0  0  0  0  0  0  0  0
   29.0894   30.1516   37.4602 H   0  0  0  0  0  0  0  0  0  0  0  0
   31.3896   32.0192   38.3439 H   0  0  0  0  0  0  0  0  0  0  0  0
   30.1259   32.3808   37.1074 H   0  0  0  0  0  0  0  0  0  0  0  0
   31.3371   31.0827   36.7953 H   0  0  0  0  0  0  0  0  0  0  0  0
   31.9354   24.9890   43.6452 H   0  0  0  0  0  0  0  0  0  0  0  0
   33.6343   25.5159   43.9877 H   0  0  0  0  0  0  0  0  0  0  0  0
   33.2783   24.5029   42.5448 H   0  0  0  0  0  0  0  0  0  0  0  0
  1  2  1  0
  2  3  2  0
  2  4  1  0
  4  5  2  0
  5  6  1  0
  6  7  2  0
  7  8  1  0
  8  9  2  0
  9 10  1  0
 10 11  2  0
 11 12  1  0
 12 13  2  0
 13 14  1  0
  8 15  1  0
 15 16  2  0
 16 17  1  0
 17 18  1  0
 18 19  1  0
 19 20  1  0
 20 21  2  0
 20 22  1  0
 22 23  1  0
 23 24  1  0
 24 25  2  0
 25 26  1  0
 26 27  1  0
 19 28  1  0
 13  4  1  0
 25 15  1  0
 12  7  1  0
 23 17  2  0
  1 29  1  0
  1 30  1  0
  9 31  1  0
 10 32  1  0
 11 33  1  0
 14 34  1  0
 14 35  1  0
 16 36  1  0
 18 37  1  0
 18 38  1  0
 22 39  1  0
 22 40  1  0
 26 41  1  0
 26 42  1  0
 27 43  1  0
 27 44  1  0
 27 45  1  0
 28 46  1  0
 28 47  1  0
 28 48  1  0
M  END
$$$$
confid_2
     RDKit          3D

 48 51  0  0  0  0  0  0  0  0999 V2000
   24.5500   26.3900   36.2500 N   0  0  0  0  0  0  0  0  0  0  0  0
   25.6000   26.1300   35.4000 C   0  0  0  0  0  0  0  0  0  0  0  0
   25.4300   25.4300   34.4200 O   0  0  0  0  0  0  0  0  0  0  0  0
   26.9800   26.6300   35.7100 C   0  0  0  0  0  0  0  0  0  0  0  0
   27.3200   26.8200   36.9800 N   0  0  0  0  0  0  0  0  0  0  0  0
   28.4700   27.4000   37.3100 N   0  0  0  0  0  0  0  0  0  0  0  0
   29.4000   27.6300   36.3700 C   0  0  0  0  0  0  0  0  0  0  0  0
   30.6600   28.0500   36.8000 C   0  0  0  0  0  0  0  0  0  0  0  0
   31.5700   28.3600   35.7800 C   0  0  0  0  0  0  0  0  0  0  0  0
   31.3700   28.1000   34.4300 C   0  0  0  0  0  0  0  0  0  0  0  0
   30.1200   27.5900   34.0500 C   0  0  0  0  0  0  0  0  0  0  0  0
   29.1500   27.3400   35.0300 C   0  0  0  0  0  0  0  0  0  0  0  0
   27.8800   26.8900   34.6600 C   0  0  0  0  0  0  0  0  0  0  0  0
   27.4800   26.6100   33.3700 N   0  0  0  0  0  0  0  0  0  0  0  0
   30.9933   28.3007   38.2184 C   0  0  0  0  0  0  0  0  0  0  0  0
   31.7607   27.3526   38.9056 C   0  0  0  0  0  0  0  0  0  0  0  0
   32.1053   27.5574   40.2462 C   0  0  0  0  0  0  0  0  0  0  0  0
   32.8887   26.5175   41.0057 C   0  0  0  0  0  0  0  0  0  0  0  0
   33.7128   27.1332   42.0553 N   0  0  0  0  0  0  0  0  0  0  0  0
   33.2414   28.3053   42.7476 C   0  0  0  0  0  0  0  0  0  0  0  0
   33.8937   28.7794   43.7172 O   0  0  0  0  0  0  0  0  0  0  0  0
   31.9477   28.9513   42.3475 C   0  0  0  0  0  0  0  0  0  0  0  0
   31.6574   28.7208   40.8927 C   0  0  0  0  0  0  0  0  0  0  0  0
   30.9081   29.6271   40.2103 N   0  0  0  0  0  0  0  0  0  0  0  0
   30.5628   29.4595   38.9043 C   0  0  0  0  0  0  0  0  0  0  0  0
   29.7883   30.5608   38.2273 C   0  0  0  0  0  0  0  0  0  0  0  0
   30.7328   31.5717   37.5861 C   0  0  0  0  0  0  0  0  0  0  0  0
   34.9537   26.4854   42.4859 C   0  0  0  0  0  0  0  0  0  0  0  0
   23.6001   26.0040   36.0503 H   0  0  0  0  0  0  0  0  0  0  0  0
   24.6739   26.9933   37.0933 H   0  0  0  0  0  0  0  0  0  0  0  0
   32.5322   28.7683   36.0650 H   0  0  0  0  0  0  0  0  0  0  0  0
   32.1340   28.3194   33.6953 H   0  0  0  0  0  0  0  0  0  0  0  0
   29.9373   27.4179   32.9983 H   0  0  0  0  0  0  0  0  0  0  0  0
   28.1243   26.1388   32.6978 H   0  0  0  0  0  0  0  0  0  0  0  0
   26.5962   27.0149   32.9873 H   0  0  0  0  0  0  0  0  0  0  0  0
   32.0856   26.4524   38.3964 H   0  0  0  0  0  0  0  0  0  0  0  0
   32.1767   25.8056   41.4745 H   0  0  0  0  0  0  0  0  0  0  0  0
   33.5345   25.9508   40.2994 H   0  0  0  0  0  0  0  0  0  0  0  0
   31.1242   28.5198   42.9544 H   0  0  0  0  0  0  0  0  0  0  0  0
   32.0014   30.0437   42.5472 H   0  0  0  0  0  0  0  0  0  0  0  0
   29.1605   31.0844   38.9804 H   0  0  0  0  0  0  0  0  0  0  0  0
   29.0987   30.1569   37.4581 H   0  0  0  0  0  0  0  0  0  0  0  0
   31.4003   32.0169   38.3547 H   0  0  0  0  0  0  0  0  0  0  0  0
   31.3511   31.0842   36.8036 H   0  0  0  0  0  0  0  0  0  0  0  0
   30.1420   32.3847   37.1143 H   0  0  0  0  0  0  0  0  0  0  0  0
   35.1468   25.5561   41.9089 H   0  0  0  0  0  0  0  0  0  0  0  0
   35.8081   27.1783   42.3350 H   0  0  0  0  0  0  0  0  0  0  0  0
   34.8845   26.2167   43.5612 H   0  0  0  0  0  0  0  0  0  0  0  0
  1  2  1  0
  2  3  2  0
  2  4  1  0
  4  5  2  0
  5  6  1  0
  6  7  2  0
  7  8  1  0
  8  9  2  0
  9 10  1  0
 10 11  2  0
 11 12  1  0
 12 13  2  0
 13 14  1  0
  8 15  1  0
 15 16  2  0
 16 17  1  0
 17 18  1  0
 18 19  1  0
 19 20  1  0
 20 21  2  0
 20 22  1  0
 22 23  1  0
 23 24  1  0
 24 25  2  0
 25 26  1  0
 26 27  1  0
 19 28  1  0
 13  4  1  0
 25 15  1  0
 12  7  1  0
 23 17  2  0
  1 29  1  0
  1 30  1  0
  9 31  1  0
 10 32  1  0
 11 33  1  0
 14 34  1  0
 14 35  1  0
 16 36  1  0
 18 37  1  0
 18 38  1  0
 22 39  1  0
 22 40  1  0
 26 41  1  0
 26 42  1  0
 27 43  1  0
 27 44  1  0
 27 45  1  0
 28 46  1  0
 28 47  1  0
 28 48  1  0
M  END
$$$$
confid_3
     RDKit          3D

 48 51  0  0  0  0  0  0  0  0999 V2000
   24.5500   26.3900   36.2500 N   0  0  0  0  0  0  0  0  0  0  0  0
   25.6000   26.1300   35.4000 C   0  0  0  0  0  0  0  0  0  0  0  0
   25.4300   25.4300   34.4200 O   0  0  0  0  0  0  0  0  0  0  0  0
   26.9800   26.6300   35.7100 C   0  0  0  0  0  0  0  0  0  0  0  0
   27.3200   26.8200   36.9800 N   0  0  0  0  0  0  0  0  0  0  0  0
   28.4700   27.4000   37.3100 N   0  0  0  0  0  0  0  0  0  0  0  0
   29.4000   27.6300   36.3700 C   0  0  0  0  0  0  0  0  0  0  0  0
   30.6600   28.0500   36.8000 C   0  0  0  0  0  0  0  0  0  0  0  0
   31.5700   28.3600   35.7800 C   0  0  0  0  0  0  0  0  0  0  0  0
   31.3700   28.1000   34.4300 C   0  0  0  0  0  0  0  0  0  0  0  0
   30.1200   27.5900   34.0500 C   0  0  0  0  0  0  0  0  0  0  0  0
   29.1500   27.3400   35.0300 C   0  0  0  0  0  0  0  0  0  0  0  0
   27.8800   26.8900   34.6600 C   0  0  0  0  0  0  0  0  0  0  0  0
   27.4800   26.6100   33.3700 N   0  0  0  0  0  0  0  0  0  0  0  0
   30.9827   28.3259   38.2181 C   0  0  0  0  0  0  0  0  0  0  0  0
   30.3671   29.4093   38.8590 C   0  0  0  0  0  0  0  0  0  0  0  0
   30.6573   29.6994   40.1967 C   0  0  0  0  0  0  0  0  0  0  0  0
   29.9648   30.8365   40.9034 C   0  0  0  0  0  0  0  0  0  0  0  0
   30.8140   31.4028   41.9608 N   0  0  0  0  0  0  0  0  0  0  0  0
   31.7062   30.5499   42.7036 C   0  0  0  0  0  0  0  0  0  0  0  0
   32.3619   31.0072   43.6789 O   0  0  0  0  0  0  0  0  0  0  0  0
   31.8345   29.0977   42.3493 C   0  0  0  0  0  0  0  0  0  0  0  0
   31.5539   28.8719   40.8919 C   0  0  0  0  0  0  0  0  0  0  0  0
   32.1249   27.8127   40.2592 N   0  0  0  0  0  0  0  0  0  0  0  0
   31.8865   27.5236   38.9506 C   0  0  0  0  0  0  0  0  0  0  0  0
   32.5320   26.2949   38.3640 C   0  0  0  0  0  0  0  0  0  0  0  0
   31.5852   25.1005   38.4260 C   0  0  0  0  0  0  0  0  0  0  0  0
   30.6631   32.8076   42.3466 C   0  0  0  0  0  0  0  0  0  0  0  0
   24.6740   26.9932   37.0934 H   0  0  0  0  0  0  0  0  0  0  0  0
   23.6001   26.0040   36.0503 H   0  0  0  0  0  0  0  0  0  0  0  0
   32.5293   28.7758   36.0637 H   0  0  0  0  0  0  0  0  0  0  0  0
   32.1334   28.3206   33.6951 H   0  0  0  0  0  0  0  0  0  0  0  0
   29.9372   27.4180   32.9983 H   0  0  0  0  0  0  0  0  0  0  0  0
   26.5962   27.0149   32.9873 H   0  0  0  0  0  0  0  0  0  0  0  0
   28.1243   26.1387   32.6979 H   0  0  0  0  0  0  0  0  0  0  0  0
   29.6627   30.0274   38.3140 H   0  0  0  0  0  0  0  0  0  0  0  0
   29.7009   31.6254   40.1651 H   0  0  0  0  0  0  0  0  0  0  0  0
   29.0255   30.4559   41.3575 H   0  0  0  0  0  0  0  0  0  0  0  0
   31.1099   28.5119   42.9531 H   0  0  0  0  0  0  0  0  0  0  0  0
   32.8619   28.7469   42.5885 H   0  0  0  0  0  0  0  0  0  0  0  0
   32.8435   26.4715   37.3139 H   0  0  0  0  0  0  0  0  0  0  0  0
   33.4527   26.0518   38.9375 H   0  0  0  0  0  0  0  0  0  0  0  0
   31.2910   24.8966   39.4778 H   0  0  0  0  0  0  0  0  0  0  0  0
   30.6735   25.2938   37.8225 H   0  0  0  0  0  0  0  0  0  0  0  0
   32.0941   24.2018   38.0184 H   0  0  0  0  0  0  0  0  0  0  0  0
   30.3581   32.8745   43.4124 H   0  0  0  0  0  0  0  0  0  0  0  0
   29.8890   33.3153   41.7329 H   0  0  0  0  0  0  0  0  0  0  0  0
   31.6282   33.3385   42.2071 H   0  0  0  0  0  0  0  0  0  0  0  0
  1  2  1  0
  2  3  2  0
  2  4  1  0
  4  5  2  0
  5  6  1  0
  6  7  2  0
  7  8  1  0
  8  9  2  0
  9 10  1  0
 10 11  2  0
 11 12  1  0
 12 13  2  0
 13 14  1  0
  8 15  1  0
 15 16  2  0
 16 17  1  0
 17 18  1  0
 18 19  1  0
 19 20  1  0
 20 21  2  0
 20 22  1  0
 22 23  1  0
 23 24  1  0
 24 25  2  0
 25 26  1  0
 26 27  1  0
 19 28  1  0
 13  4  1  0
 25 15  1  0
 12  7  1  0
 23 17  2  0
  1 29  1  0
  1 30  1  0
  9 31  1  0
 10 32  1  0
 11 33  1  0
 14 34  1  0
 14 35  1  0
 16 36  1  0
 18 37  1  0
 18 38  1  0
 22 39  1  0
 22 40  1  0
 26 41  1  0
 26 42  1  0
 27 43  1  0
 27 44  1  0
 27 45  1  0
 28 46  1  0
 28 47  1  0
 28 48  1  0
M  END
$$$$
confid_4
     RDKit          3D

 48 51  0  0  0  0  0  0  0  0999 V2000
   24.5500   26.3900   36.2500 N   0  0  0  0  0  0  0  0  0  0  0  0
   25.6000   26.1300   35.4000 C   0  0  0  0  0  0  0  0  0  0  0  0
   25.4300   25.4300   34.4200 O   0  0  0  0  0  0  0  0  0  0  0  0
   26.9800   26.6300   35.7100 C   0  0  0  0  0  0  0  0  0  0  0  0
   27.3200   26.8200   36.9800 N   0  0  0  0  0  0  0  0  0  0  0  0
   28.4700   27.4000   37.3100 N   0  0  0  0  0  0  0  0  0  0  0  0
   29.4000   27.6300   36.3700 C   0  0  0  0  0  0  0  0  0  0  0  0
   30.6600   28.0500   36.8000 C   0  0  0  0  0  0  0  0  0  0  0  0
   31.5700   28.3600   35.7800 C   0  0  0  0  0  0  0  0  0  0  0  0
   31.3700   28.1000   34.4300 C   0  0  0  0  0  0  0  0  0  0  0  0
   30.1200   27.5900   34.0500 C   0  0  0  0  0  0  0  0  0  0  0  0
   29.1500   27.3400   35.0300 C   0  0  0  0  0  0  0  0  0  0  0  0
   27.8800   26.8900   34.6600 C   0  0  0  0  0  0  0  0  0  0  0  0
   27.4800   26.6100   33.3700 N   0  0  0  0  0  0  0  0  0  0  0  0
   30.9869   28.3125   38.2185 C   0  0  0  0  0  0  0  0  0  0  0  0
   31.0475   29.6378   38.6673 C   0  0  0  0  0  0  0  0  0  0  0  0
   31.3635   29.9200   40.0010 C   0  0  0  0  0  0  0  0  0  0  0  0
   31.3803   31.3413   40.5024 C   0  0  0  0  0  0  0  0  0  0  0  0
   32.3408   31.5063   41.6025 N   0  0  0  0  0  0  0  0  0  0  0  0
   32.5655   30.4285   42.5315 C   0  0  0  0  0  0  0  0  0  0  0  0
   33.3097   30.5961   43.5357 O   0  0  0  0  0  0  0  0  0  0  0  0
   31.8840   29.1062   42.3355 C   0  0  0  0  0  0  0  0  0  0  0  0
   31.6055   28.8535   40.8821 C   0  0  0  0  0  0  0  0  0  0  0  0
   31.5382   27.5736   40.4285 N   0  0  0  0  0  0  0  0  0  0  0  0
   31.2397   27.2679   39.1361 C   0  0  0  0  0  0  0  0  0  0  0  0
   31.2665   25.8192   38.7220 C   0  0  0  0  0  0  0  0  0  0  0  0
   32.6260   25.4473   38.1395 C   0  0  0  0  0  0  0  0  0  0  0  0
   32.9759   32.8062   41.8308 C   0  0  0  0  0  0  0  0  0  0  0  0
   24.6740   26.9931   37.0934 H   0  0  0  0  0  0  0  0  0  0  0  0
   23.6001   26.0039   36.0504 H   0  0  0  0  0  0  0  0  0  0  0  0
   32.5327   28.7671   36.0648 H   0  0  0  0  0  0  0  0  0  0  0  0
   32.1361   28.3135   33.6958 H   0  0  0  0  0  0  0  0  0  0  0  0
   29.9367   27.3919   33.0017 H   0  0  0  0  0  0  0  0  0  0  0  0
   27.5827   27.3393   32.6301 H   0  0  0  0  0  0  0  0  0  0  0  0
   27.4182   25.6173   33.0515 H   0  0  0  0  0  0  0  0  0  0  0  0
   30.8422   30.4490   37.9782 H   0  0  0  0  0  0  0  0  0  0  0  0
   31.6397   32.0266   39.6657 H   0  0  0  0  0  0  0  0  0  0  0  0
   30.3642   31.6040   40.8657 H   0  0  0  0  0  0  0  0  0  0  0  0
   30.9244   29.1068   42.8938 H   0  0  0  0  0  0  0  0  0  0  0  0
   32.5282   28.2940   42.7372 H   0  0  0  0  0  0  0  0  0  0  0  0
   31.0683   25.1779   39.6081 H   0  0  0  0  0  0  0  0  0  0  0  0
   30.4715   25.5999   37.9801 H   0  0  0  0  0  0  0  0  0  0  0  0
   33.4277   25.6282   38.8871 H   0  0  0  0  0  0  0  0  0  0  0  0
   32.8349   26.0450   37.2273 H   0  0  0  0  0  0  0  0  0  0  0  0
   32.6309   24.3713   37.8659 H   0  0  0  0  0  0  0  0  0  0  0  0
   34.0792   32.6986   41.7674 H   0  0  0  0  0  0  0  0  0  0  0  0
   32.6502   33.5540   41.0769 H   0  0  0  0  0  0  0  0  0  0  0  0
   32.7015   33.1875   42.8371 H   0  0  0  0  0  0  0  0  0  0  0  0
  1  2  1  0
  2  3  2  0
  2  4  1  0
  4  5  2  0
  5  6  1  0
  6  7  2  0
  7  8  1  0
  8  9  2  0
  9 10  1  0
 10 11  2  0
 11 12  1  0
 12 13  2  0
 13 14  1  0
  8 15  1  0
 15 16  2  0
 16 17  1  0
 17 18  1  0
 18 19  1  0
 19 20  1  0
 20 21  2  0
 20 22  1  0
 22 23  1  0
 23 24  1  0
 24 25  2  0
 25 26  1  0
 26 27  1  0
 19 28  1  0
 13  4  1  0
 25 15  1  0
 12  7  1  0
 23 17  2  0
  1 29  1  0
  1 30  1  0
  9 31  1  0
 10 32  1  0
 11 33  1  0
 14 34  1  0
 14 35  1  0
 16 36  1  0
 18 37  1  0
 18 38  1  0
 22 39  1  0
 22 40  1  0
 26 41  1  0
 26 42  1  0
 27 43  1  0
 27 44  1  0
 27 45  1  0
 28 46  1  0
 28 47  1  0
 28 48  1  0
M  END
$$$$
confid_5
     RDKit          3D

 48 51  0  0  0  0  0  0  0  0999 V2000
   24.5500   26.3900   36.2500 N   0  0  0  0  0  0  0  0  0  0  0  0
   25.6000   26.1300   35.4000 C   0  0  0  0  0  0  0  0  0  0  0  0
   25.4300   25.4300   34.4200 O   0  0  0  0  0  0  0  0  0  0  0  0
   26.9800   26.6300   35.7100 C   0  0  0  0  0  0  0  0  0  0  0  0
   27.3200   26.8200   36.9800 N   0  0  0  0  0  0  0  0  0  0  0  0
   28.4700   27.4000   37.3100 N   0  0  0  0  0  0  0  0  0  0  0  0
   29.4000   27.6300   36.3700 C   0  0  0  0  0  0  0  0  0  0  0  0
   30.6600   28.0500   36.8000 C   0  0  0  0  0  0  0  0  0  0  0  0
   31.5700   28.3600   35.7800 C   0  0  0  0  0  0  0  0  0  0  0  0
   31.3700   28.1000   34.4300 C   0  0  0  0  0  0  0  0  0  0  0  0
   30.1200   27.5900   34.0500 C   0  0  0  0  0  0  0  0  0  0  0  0
   29.1500   27.3400   35.0300 C   0  0  0  0  0  0  0  0  0  0  0  0
   27.8800   26.8900   34.6600 C   0  0  0  0  0  0  0  0  0  0  0  0
   27.4800   26.6100   33.3700 N   0  0  0  0  0  0  0  0  0  0  0  0
   30.9816   28.3265   38.2181 C   0  0  0  0  0  0  0  0  0  0  0  0
   30.3720   29.4155   38.8551 C   0  0  0  0  0  0  0  0  0  0  0  0
   30.6460   29.6950   40.1984 C   0  0  0  0  0  0  0  0  0  0  0  0
   30.0284   30.8914   40.8758 C   0  0  0  0  0  0  0  0  0  0  0  0
   29.8461   30.6530   42.3145 N   0  0  0  0  0  0  0  0  0  0  0  0
   30.7952   29.8458   43.0376 C   0  0  0  0  0  0  0  0  0  0  0  0
   30.7038   29.7204   44.2892 O   0  0  0  0  0  0  0  0  0  0  0  0
   31.9268   29.1775   42.3137 C   0  0  0  0  0  0  0  0  0  0  0  0
   31.5537   28.8773   40.8907 C   0  0  0  0  0  0  0  0  0  0  0  0
   32.1425   27.8308   40.2532 N   0  0  0  0  0  0  0  0  0  0  0  0
   31.8905   27.5294   38.9500 C   0  0  0  0  0  0  0  0  0  0  0  0
   32.5420   26.3036   38.3635 C   0  0  0  0  0  0  0  0  0  0  0  0
   31.5999   25.1054   38.4240 C   0  0  0  0  0  0  0  0  0  0  0  0
   28.7722   31.3359   43.0394 C   0  0  0  0  0  0  0  0  0  0  0  0
   24.6740   26.9932   37.0934 H   0  0  0  0  0  0  0  0  0  0  0  0
   23.6001   26.0040   36.0503 H   0  0  0  0  0  0  0  0  0  0  0  0
   32.5292   28.7762   36.0637 H   0  0  0  0  0  0  0  0  0  0  0  0
   32.1334   28.3207   33.6951 H   0  0  0  0  0  0  0  0  0  0  0  0
   29.9372   27.4180   32.9983 H   0  0  0  0  0  0  0  0  0  0  0  0
   28.1243   26.1387   32.6978 H   0  0  0  0  0  0  0  0  0  0  0  0
   26.5962   27.0149   32.9873 H   0  0  0  0  0  0  0  0  0  0  0  0
   29.6863   30.0473   38.3020 H   0  0  0  0  0  0  0  0  0  0  0  0
   30.6977   31.7666   40.7353 H   0  0  0  0  0  0  0  0  0  0  0  0
   29.0490   31.1214   40.4018 H   0  0  0  0  0  0  0  0  0  0  0  0
   32.8102   29.8498   42.3228 H   0  0  0  0  0  0  0  0  0  0  0  0
   32.1939   28.2327   42.8351 H   0  0  0  0  0  0  0  0  0  0  0  0
   32.8539   26.4820   37.3140 H   0  0  0  0  0  0  0  0  0  0  0  0
   33.4630   26.0638   38.9379 H   0  0  0  0  0  0  0  0  0  0  0  0
   32.1129   24.2089   38.0168 H   0  0  0  0  0  0  0  0  0  0  0  0
   31.3053   24.9000   39.4754 H   0  0  0  0  0  0  0  0  0  0  0  0
   30.6882   25.2952   37.8194 H   0  0  0  0  0  0  0  0  0  0  0  0
   28.1001   30.5847   43.5051 H   0  0  0  0  0  0  0  0  0  0  0  0
   28.1693   31.9764   42.3611 H   0  0  0  0  0  0  0  0  0  0  0  0
   29.2050   31.9826   43.8317 H   0  0  0  0  0  0  0  0  0  0  0  0
  1  2  1  0
  2  3  2  0
  2  4  1  0
  4  5  2  0
  5  6  1  0
  6  7  2  0
  7  8  1  0
  8  9  2  0
  9 10  1  0
 10 11  2  0
 11 12  1  0
 12 13  2  0
 13 14  1  0
  8 15  1  0
 15 16  2  0
 16 17  1  0
 17 18  1  0
 18 19  1  0
 19 20  1  0
 20 21  2  0
 20 22  1  0
 22 23  1  0
 23 24  1  0
 24 25  2  0
 25 26  1  0
 26 27  1  0
 19 28  1  0
 13  4  1  0
 25 15  1  0
 12  7  1  0
 23 17  2  0
  1 29  1  0
  1 30  1  0
  9 31  1  0
 10 32  1  0
 11 33  1  0
 14 34  1  0
 14 35  1  0
 16 36  1  0
 18 37  1  0
 18 38  1  0
 22 39  1  0
 22 40  1  0
 26 41  1  0
 26 42  1  0
 27 43  1  0
 27 44  1  0
 27 45  1  0
 28 46  1  0
 28 47  1  0
 28 48  1  0
M  END
$$$$
confid_6
     RDKit          3D

 48 51  0  0  0  0  0  0  0  0999 V2000
   24.5500   26.3900   36.2500 N   0  0  0  0  0  0  0  0  0  0  0  0
   25.6000   26.1300   35.4000 C   0  0  0  0  0  0  0  0  0  0  0  0
   25.4300   25.4300   34.4200 O   0  0  0  0  0  0  0  0  0  0  0  0
   26.9800   26.6300   35.7100 C   0  0  0  0  0  0  0  0  0  0  0  0
   27.3200   26.8200   36.9800 N   0  0  0  0  0  0  0  0  0  0  0  0
   28.4700   27.4000   37.3100 N   0  0  0  0  0  0  0  0  0  0  0  0
   29.4000   27.6300   36.3700 C   0  0  0  0  0  0  0  0  0  0  0  0
   30.6600   28.0500   36.8000 C   0  0  0  0  0  0  0  0  0  0  0  0
   31.5700   28.3600   35.7800 C   0  0  0  0  0  0  0  0  0  0  0  0
   31.3700   28.1000   34.4300 C   0  0  0  0  0  0  0  0  0  0  0  0
   30.1200   27.5900   34.0500 C   0  0  0  0  0  0  0  0  0  0  0  0
   29.1500   27.3400   35.0300 C   0  0  0  0  0  0  0  0  0  0  0  0
   27.8800   26.8900   34.6600 C   0  0  0  0  0  0  0  0  0  0  0  0
   27.4800   26.6100   33.3700 N   0  0  0  0  0  0  0  0  0  0  0  0
   30.9922   28.2759   38.2243 C   0  0  0  0  0  0  0  0  0  0  0  0
   31.2153   27.1634   39.0455 C   0  0  0  0  0  0  0  0  0  0  0  0
   31.5163   27.3316   40.4014 C   0  0  0  0  0  0  0  0  0  0  0  0
   31.8038   26.1398   41.2784 C   0  0  0  0  0  0  0  0  0  0  0  0
   31.4148   26.3984   42.6719 N   0  0  0  0  0  0  0  0  0  0  0  0
   31.5400   27.7242   43.2213 C   0  0  0  0  0  0  0  0  0  0  0  0
   31.3063   27.9337   44.4427 O   0  0  0  0  0  0  0  0  0  0  0  0
   31.9888   28.8633   42.3540 C   0  0  0  0  0  0  0  0  0  0  0  0
   31.6054   28.6329   40.9208 C   0  0  0  0  0  0  0  0  0  0  0  0
   31.3909   29.7010   40.1076 N   0  0  0  0  0  0  0  0  0  0  0  0
   31.0892   29.5701   38.7866 C   0  0  0  0  0  0  0  0  0  0  0  0
   30.7946   30.8216   38.0001 C   0  0  0  0  0  0  0  0  0  0  0  0
   29.2973   31.1109   37.9781 C   0  0  0  0  0  0  0  0  0  0  0  0
   31.0189   25.2870   43.5396 C   0  0  0  0  0  0  0  0  0  0  0  0
   24.6739   26.9932   37.0933 H   0  0  0  0  0  0  0  0  0  0  0  0
   23.6001   26.0039   36.0504 H   0  0  0  0  0  0  0  0  0  0  0  0
   32.5362   28.7585   36.0652 H   0  0  0  0  0  0  0  0  0  0  0  0
   32.1367   28.3119   33.6959 H   0  0  0  0  0  0  0  0  0  0  0  0
   29.9367   27.3917   33.0017 H   0  0  0  0  0  0  0  0  0  0  0  0
   27.5827   27.3393   32.6301 H   0  0  0  0  0  0  0  0  0  0  0  0
   27.4182   25.6173   33.0515 H   0  0  0  0  0  0  0  0  0  0  0  0
   31.1569   26.1654   38.6261 H   0  0  0  0  0  0  0  0  0  0  0  0
   31.2568   25.2529   40.8897 H   0  0  0  0  0  0  0  0  0  0  0  0
   32.8922   25.9223   41.2401 H   0  0  0  0  0  0  0  0  0  0  0  0
   33.0928   28.9585   42.4232 H   0  0  0  0  0  0  0  0  0  0  0  0
   31.5274   29.8082   42.7149 H   0  0  0  0  0  0  0  0  0  0  0  0
   31.1754   30.7450   36.9618 H   0  0  0  0  0  0  0  0  0  0  0  0
   31.3171   31.6827   38.4705 H   0  0  0  0  0  0  0  0  0  0  0  0
   28.9101   31.2183   39.0139 H   0  0  0  0  0  0  0  0  0  0  0  0
   29.1102   32.0573   37.4286 H   0  0  0  0  0  0  0  0  0  0  0  0
   28.7499   30.2924   37.4661 H   0  0  0  0  0  0  0  0  0  0  0  0
   31.0386   24.3199   42.9936 H   0  0  0  0  0  0  0  0  0  0  0  0
   31.7181   25.2130   44.3992 H   0  0  0  0  0  0  0  0  0  0  0  0
   29.9890   25.4577   43.9179 H   0  0  0  0  0  0  0  0  0  0  0  0
  1  2  1  0
  2  3  2  0
  2  4  1  0
  4  5  2  0
  5  6  1  0
  6  7  2  0
  7  8  1  0
  8  9  2  0
  9 10  1  0
 10 11  2  0
 11 12  1  0
 12 13  2  0
 13 14  1  0
  8 15  1  0
 15 16  2  0
 16 17  1  0
 17 18  1  0
 18 19  1  0
 19 20  1  0
 20 21  2  0
 20 22  1  0
 22 23  1  0
 23 24  1  0
 24 25  2  0
 25 26  1  0
 26 27  1  0
 19 28  1  0
 13  4  1  0
 25 15  1  0
 12  7  1  0
 23 17  2  0
  1 29  1  0
  1 30  1  0
  9 31  1  0
 10 32  1  0
 11 33  1  0
 14 34  1  0
 14 35  1  0
 16 36  1  0
 18 37  1  0
 18 38  1  0
 22 39  1  0
 22 40  1  0
 26 41  1  0
 26 42  1  0
 27 43  1  0
 27 44  1  0
 27 45  1  0
 28 46  1  0
 28 47  1  0
 28 48  1  0
M  END
$$$$
confid_7
     RDKit          3D

 48 51  0  0  0  0  0  0  0  0999 V2000
   24.5500   26.3900   36.2500 N   0  0  0  0  0  0  0  0  0  0  0  0
   25.6000   26.1300   35.4000 C   0  0  0  0  0  0  0  0  0  0  0  0
   25.4300   25.4300   34.4200 O   0  0  0  0  0  0  0  0  0  0  0  0
   26.9800   26.6300   35.7100 C   0  0  0  0  0  0  0  0  0  0  0  0
   27.3200   26.8200   36.9800 N   0  0  0  0  0  0  0  0  0  0  0  0
   28.4700   27.4000   37.3100 N   0  0  0  0  0  0  0  0  0  0  0  0
   29.4000   27.6300   36.3700 C   0  0  0  0  0  0  0  0  0  0  0  0
   30.6600   28.0500   36.8000 C   0  0  0  0  0  0  0  0  0  0  0  0
   31.5700   28.3600   35.7800 C   0  0  0  0  0  0  0  0  0  0  0  0
   31.3700   28.1000   34.4300 C   0  0  0  0  0  0  0  0  0  0  0  0
   30.1200   27.5900   34.0500 C   0  0  0  0  0  0  0  0  0  0  0  0
   29.1500   27.3400   35.0300 C   0  0  0  0  0  0  0  0  0  0  0  0
   27.8800   26.8900   34.6600 C   0  0  0  0  0  0  0  0  0  0  0  0
   27.4800   26.6100   33.3700 N   0  0  0  0  0  0  0  0  0  0  0  0
   30.9866   28.3121   38.2188 C   0  0  0  0  0  0  0  0  0  0  0  0
   31.0641   29.6378   38.6642 C   0  0  0  0  0  0  0  0  0  0  0  0
   31.3611   29.9188   40.0024 C   0  0  0  0  0  0  0  0  0  0  0  0
   31.4837   31.3436   40.4789 C   0  0  0  0  0  0  0  0  0  0  0  0
   31.1198   31.4640   41.8977 N   0  0  0  0  0  0  0  0  0  0  0  0
   31.4103   30.3881   42.8106 C   0  0  0  0  0  0  0  0  0  0  0  0
   31.1954   30.5235   44.0459 O   0  0  0  0  0  0  0  0  0  0  0  0
   32.0094   29.1086   42.3057 C   0  0  0  0  0  0  0  0  0  0  0  0
   31.6103   28.8523   40.8814 C   0  0  0  0  0  0  0  0  0  0  0  0
   31.5574   27.5732   40.4237 N   0  0  0  0  0  0  0  0  0  0  0  0
   31.2396   27.2672   39.1360 C   0  0  0  0  0  0  0  0  0  0  0  0
   31.2652   25.8186   38.7212 C   0  0  0  0  0  0  0  0  0  0  0  0
   32.6239   25.4457   38.1374 C   0  0  0  0  0  0  0  0  0  0  0  0
   30.5776   32.7245   42.4098 C   0  0  0  0  0  0  0  0  0  0  0  0
   23.6001   26.0040   36.0503 H   0  0  0  0  0  0  0  0  0  0  0  0
   24.6740   26.9931   37.0934 H   0  0  0  0  0  0  0  0  0  0  0  0
   32.5323   28.7681   36.0647 H   0  0  0  0  0  0  0  0  0  0  0  0
   32.1341   28.3188   33.6953 H   0  0  0  0  0  0  0  0  0  0  0  0
   29.9374   27.4176   32.9983 H   0  0  0  0  0  0  0  0  0  0  0  0
   28.1243   26.1387   32.6979 H   0  0  0  0  0  0  0  0  0  0  0  0
   26.5962   27.0149   32.9873 H   0  0  0  0  0  0  0  0  0  0  0  0
   30.8883   30.4503   37.9685 H   0  0  0  0  0  0  0  0  0  0  0  0
   32.5349   31.6761   40.3447 H   0  0  0  0  0  0  0  0  0  0  0  0
   30.8292   31.9980   39.8621 H   0  0  0  0  0  0  0  0  0  0  0  0
   31.6713   28.2636   42.9441 H   0  0  0  0  0  0  0  0  0  0  0  0
   33.1158   29.1780   42.3655 H   0  0  0  0  0  0  0  0  0  0  0  0
   30.4693   25.6000   37.9800 H   0  0  0  0  0  0  0  0  0  0  0  0
   31.0672   25.1775   39.6074 H   0  0  0  0  0  0  0  0  0  0  0  0
   32.8325   26.0436   37.2253 H   0  0  0  0  0  0  0  0  0  0  0  0
   32.6276   24.3698   37.8633 H   0  0  0  0  0  0  0  0  0  0  0  0
   33.4265   25.6256   38.8843 H   0  0  0  0  0  0  0  0  0  0  0  0
   30.4772   33.4801   41.6019 H   0  0  0  0  0  0  0  0  0  0  0  0
   29.5752   32.5467   42.8531 H   0  0  0  0  0  0  0  0  0  0  0  0
   31.2548   33.1373   43.1871 H   0  0  0  0  0  0  0  0  0  0  0  0
  1  2  1  0
  2  3  2  0
  2  4  1  0
  4  5  2  0
  5  6  1  0
  6  7  2  0
  7  8  1  0
  8  9  2  0
  9 10  1  0
 10 11  2  0
 11 12  1  0
 12 13  2  0
 13 14  1  0
  8 15  1  0
 15 16  2  0
 16 17  1  0
 17 18  1  0
 18 19  1  0
 19 20  1  0
 20 21  2  0
 20 22  1  0
 22 23  1  0
 23 24  1  0
 24 25  2  0
 25 26  1  0
 26 27  1  0
 19 28  1  0
 13  4  1  0
 25 15  1  0
 12  7  1  0
 23 17  2  0
  1 29  1  0
  1 30  1  0
  9 31  1  0
 10 32  1  0
 11 33  1  0
 14 34  1  0
 14 35  1  0
 16 36  1  0
 18 37  1  0
 18 38  1  0
 22 39  1  0
 22 40  1  0
 26 41  1  0
 26 42  1  0
 27 43  1  0
 27 44  1  0
 27 45  1  0
 28 46  1  0
 28 47  1  0
 28 48  1  0
M  END
$$$$
confid_8
     RDKit          3D

 48 51  0  0  0  0  0  0  0  0999 V2000
   24.5500   26.3900   36.2500 N   0  0  0  0  0  0  0  0  0  0  0  0
   25.6000   26.1300   35.4000 C   0  0  0  0  0  0  0  0  0  0  0  0
   25.4300   25.4300   34.4200 O   0  0  0  0  0  0  0  0  0  0  0  0
   26.9800   26.6300   35.7100 C   0  0  0  0  0  0  0  0  0  0  0  0
   27.3200   26.8200   36.9800 N   0  0  0  0  0  0  0  0  0  0  0  0
   28.4700   27.4000   37.3100 N   0  0  0  0  0  0  0  0  0  0  0  0
   29.4000   27.6300   36.3700 C   0  0  0  0  0  0  0  0  0  0  0  0
   30.6600   28.0500   36.8000 C   0  0  0  0  0  0  0  0  0  0  0  0
   31.5700   28.3600   35.7800 C   0  0  0  0  0  0  0  0  0  0  0  0
   31.3700   28.1000   34.4300 C   0  0  0  0  0  0  0  0  0  0  0  0
   30.1200   27.5900   34.0500 C   0  0  0  0  0  0  0  0  0  0  0  0
   29.1500   27.3400   35.0300 C   0  0  0  0  0  0  0  0  0  0  0  0
   27.8800   26.8900   34.6600 C   0  0  0  0  0  0  0  0  0  0  0  0
   27.4800   26.6100   33.3700 N   0  0  0  0  0  0  0  0  0  0  0  0
   30.9938   28.2811   38.2257 C   0  0  0  0  0  0  0  0  0  0  0  0
   31.0538   27.1799   39.0905 C   0  0  0  0  0  0  0  0  0  0  0  0
   31.4163   27.3487   40.4309 C   0  0  0  0  0  0  0  0  0  0  0  0
   31.4457   26.1727   41.3735 C   0  0  0  0  0  0  0  0  0  0  0  0
   32.4501   26.3617   42.4297 N   0  0  0  0  0  0  0  0  0  0  0  0
   32.7207   27.6815   42.9397 C   0  0  0  0  0  0  0  0  0  0  0  0
   33.5053   27.8407   43.9141 O   0  0  0  0  0  0  0  0  0  0  0  0
   32.0404   28.8778   42.3422 C   0  0  0  0  0  0  0  0  0  0  0  0
   31.7020   28.6406   40.8989 C   0  0  0  0  0  0  0  0  0  0  0  0
   31.6114   29.7002   40.0528 N   0  0  0  0  0  0  0  0  0  0  0  0
   31.2573   29.5713   38.7432 C   0  0  0  0  0  0  0  0  0  0  0  0
   31.1977   30.8073   37.8723 C   0  0  0  0  0  0  0  0  0  0  0  0
   30.8168   32.0611   38.6587 C   0  0  0  0  0  0  0  0  0  0  0  0
   33.0849   25.1981   43.0526 C   0  0  0  0  0  0  0  0  0  0  0  0
   23.6001   26.0040   36.0503 H   0  0  0  0  0  0  0  0  0  0  0  0
   24.6739   26.9932   37.0934 H   0  0  0  0  0  0  0  0  0  0  0  0
   32.5368   28.7577   36.0636 H   0  0  0  0  0  0  0  0  0  0  0  0
   32.1349   28.3169   33.6955 H   0  0  0  0  0  0  0  0  0  0  0  0
   29.9375   27.4172   32.9983 H   0  0  0  0  0  0  0  0  0  0  0  0
   28.1243   26.1387   32.6978 H   0  0  0  0  0  0  0  0  0  0  0  0
   26.5962   27.0149   32.9873 H   0  0  0  0  0  0  0  0  0  0  0  0
   30.8316   26.1877   38.7143 H   0  0  0  0  0  0  0  0  0  0  0  0
   30.4440   26.0645   41.8409 H   0  0  0  0  0  0  0  0  0  0  0  0
   31.6659   25.2443   40.8019 H   0  0  0  0  0  0  0  0  0  0  0  0
   31.1054   29.0818   42.9050 H   0  0  0  0  0  0  0  0  0  0  0  0
   32.7065   29.7639   42.4267 H   0  0  0  0  0  0  0  0  0  0  0  0
   30.4420   30.6778   37.0683 H   0  0  0  0  0  0  0  0  0  0  0  0
   32.1899   30.9629   37.3982 H   0  0  0  0  0  0  0  0  0  0  0  0
   30.7254   32.9219   37.9632 H   0  0  0  0  0  0  0  0  0  0  0  0
   31.5976   32.3014   39.4114 H   0  0  0  0  0  0  0  0  0  0  0  0
   29.8419   31.9128   39.1707 H   0  0  0  0  0  0  0  0  0  0  0  0
   32.8499   25.1772   44.1378 H   0  0  0  0  0  0  0  0  0  0  0  0
   32.7228   24.2496   42.6020 H   0  0  0  0  0  0  0  0  0  0  0  0
   34.1853   25.2559   42.9163 H   0  0  0  0  0  0  0  0  0  0  0  0
  1  2  1  0
  2  3  2  0
  2  4  1  0
  4  5  2  0
  5  6  1  0
  6  7  2  0
  7  8  1  0
  8  9  2  0
  9 10  1  0
 10 11  2  0
 11 12  1  0
 12 13  2  0
 13 14  1  0
  8 15  1  0
 15 16  2  0
 16 17  1  0
 17 18  1  0
 18 19  1  0
 19 20  1  0
 20 21  2  0
 20 22  1  0
 22 23  1  0
 23 24  1  0
 24 25  2  0
 25 26  1  0
 26 27  1  0
 19 28  1  0
 13  4  1  0
 25 15  1  0
 12  7  1  0
 23 17  2  0
  1 29  1  0
  1 30  1  0
  9 31  1  0
 10 32  1  0
 11 33  1  0
 14 34  1  0
 14 35  1  0
 16 36  1  0
 18 37  1  0
 18 38  1  0
 22 39  1  0
 22 40  1  0
 26 41  1  0
 26 42  1  0
 27 43  1  0
 27 44  1  0
 27 45  1  0
 28 46  1  0
 28 47  1  0
 28 48  1  0
M  END
$$$$
