confid_0
     RDKit          3D

 46 49  0  0  0  0  0  0  0  0999 V2000
   24.4800   26.1000   36.1300 N   0  0  0  0  0  0  0  0  0  0  0  0
   25.2500   26.2500   34.9900 C   0  0  0  0  0  0  0  0  0  0  0  0
   24.7400   25.7600   33.9900 O   0  0  0  0  0  0  0  0  0  0  0  0
   26.5900   26.8900   34.9600 C   0  0  0  0  0  0  0  0  0  0  0  0
   27.0600   27.2400   36.1600 N   0  0  0  0  0  0  0  0  0  0  0  0
   28.3000   27.7100   36.2400 N   0  0  0  0  0  0  0  0  0  0  0  0
   29.0500   27.9600   35.1500 C   0  0  0  0  0  0  0  0  0  0  0  0
   30.3400   28.4900   35.2600 C   0  0  0  0  0  0  0  0  0  0  0  0
   31.1100   28.8200   34.1400 C   0  0  0  0  0  0  0  0  0  0  0  0
   30.5200   28.6700   32.8800 C   0  0  0  0  0  0  0  0  0  0  0  0
   29.2900   28.0200   32.7700 C   0  0  0  0  0  0  0  0  0  0  0  0
   28.5200   27.7100   33.8900 C   0  0  0  0  0  0  0  0  0  0  0  0
   27.2700   27.0800   33.7600 C   0  0  0  0  0  0  0  0  0  0  0  0
   26.7500   26.8800   32.4900 N   0  0  0  0  0  0  0  0  0  0  0  0
   23.4903   25.0694   36.3292 C   0  0  0  0  0  0  0  0  0  0  0  0
   23.6977   23.7709   35.8330 C   0  0  0  0  0  0  0  0  0  0  0  0
   22.7560   22.7664   36.0579 C   0  0  0  0  0  0  0  0  0  0  0  0
   22.9859   21.4765   35.5675 O   0  0  0  0  0  0  0  0  0  0  0  0
   22.1891   20.3667   35.9802 C   0  0  0  0  0  0  0  0  0  0  0  0
   20.7221   20.7850   36.0933 C   0  0  0  0  0  0  0  0  0  0  0  0
   20.6073   21.9819   36.9408 N   0  0  0  0  0  0  0  0  0  0  0  0
   21.5785   23.0415   36.7721 C   0  0  0  0  0  0  0  0  0  0  0  0
   21.3788   24.3328   37.2930 C   0  0  0  0  0  0  0  0  0  0  0  0
   22.3327   25.3488   37.0805 C   0  0  0  0  0  0  0  0  0  0  0  0
   22.1576   26.6472   37.5878 O   0  0  0  0  0  0  0  0  0  0  0  0
   21.0401   27.0711   38.3620 C   0  0  0  0  0  0  0  0  0  0  0  0
   19.5336   22.0766   37.9355 C   0  0  0  0  0  0  0  0  0  0  0  0
   24.6081   26.8023   36.8930 H   0  0  0  0  0  0  0  0  0  0  0  0
   30.7582   28.6623   36.2441 H   0  0  0  0  0  0  0  0  0  0  0  0
   32.0994   29.2455   34.2469 H   0  0  0  0  0  0  0  0  0  0  0  0
   31.0716   28.9442   31.9898 H   0  0  0  0  0  0  0  0  0  0  0  0
   28.9437   27.8129   31.7669 H   0  0  0  0  0  0  0  0  0  0  0  0
   26.7156   27.6566   31.7925 H   0  0  0  0  0  0  0  0  0  0  0  0
   26.3615   25.9529   32.2111 H   0  0  0  0  0  0  0  0  0  0  0  0
   24.6052   23.5278   35.2949 H   0  0  0  0  0  0  0  0  0  0  0  0
   22.5471   20.0102   36.9701 H   0  0  0  0  0  0  0  0  0  0  0  0
   22.2960   19.5414   35.2453 H   0  0  0  0  0  0  0  0  0  0  0  0
   20.3335   21.0222   35.0796 H   0  0  0  0  0  0  0  0  0  0  0  0
   20.1326   19.9365   36.5025 H   0  0  0  0  0  0  0  0  0  0  0  0
   20.4808   24.5516   37.8502 H   0  0  0  0  0  0  0  0  0  0  0  0
   20.9742   26.4746   39.2964 H   0  0  0  0  0  0  0  0  0  0  0  0
   21.1709   28.1391   38.6316 H   0  0  0  0  0  0  0  0  0  0  0  0
   20.1050   26.9656   37.7724 H   0  0  0  0  0  0  0  0  0  0  0  0
   19.9664   22.2813   38.9375 H   0  0  0  0  0  0  0  0  0  0  0  0
   18.9500   21.1341   37.9975 H   0  0  0  0  0  0  0  0  0  0  0  0
   18.8327   22.8909   37.6566 H   0  0  0  0  0  0  0  0  0  0  0  0
  1  2  1  0
  2  3  2  0
  2  4  1  0
  4  5  2  0
  5  6  1  0
  6  7  2  0
  7  8  1  0
  8  9  2  0
  9 10  1  0
 10 11  2  0
 11 12  1  0
 12 13  2  0
 13 14  1  0
  1 15  1  0
 15 16  2  0
 16 17  1  0
 17 18  1  0
 18 19  1  0
 19 20  1  0
 20 21  1  0
 21 22  1  0
 22 23  1  0
 23 24  2  0
 24 25  1  0
 25 26  1  0
 21 27  1  0
 13  4  1  0
 24 15  1  0
 12  7  1  0
 22 17  2  0
  1 28  1  0
  8 29  1  0
  9 30  1  0
 10 31  1  0
 11 32  1  0
 14 33  1  0
 14 34  1  0
 16 35  1  0
 19 36  1  0
 19 37  1  0
 20 38  1  0
 20 39  1  0
 23 40  1  0
 26 41  1  0
 26 42  1  0
 26 43  1  0
 27 44  1  0
 27 45  1  0
 27 46  1  0
M  END
$$$$
confid_1
     RDKit          3D

 46 49  0  0  0  0  0  0  0  0999 V2000
   24.4800   26.1000   36.1300 N   0  0  0  0  0  0  0  0  0  0  0  0
   25.2500   26.2500   34.9900 C   0  0  0  0  0  0  0  0  0  0  0  0
   24.7400   25.7600   33.9900 O   0  0  0  0  0  0  0  0  0  0  0  0
   26.5900   26.8900   34.9600 C   0  0  0  0  0  0  0  0  0  0  0  0
   27.0600   27.2400   36.1600 N   0  0  0  0  0  0  0  0  0  0  0  0
   28.3000   27.7100   36.2400 N   0  0  0  0  0  0  0  0  0  0  0  0
   29.0500   27.9600   35.1500 C   0  0  0  0  0  0  0  0  0  0  0  0
   30.3400   28.4900   35.2600 C   0  0  0  0  0  0  0  0  0  0  0  0
   31.1100   28.8200   34.1400 C   0  0  0  0  0  0  0  0  0  0  0  0
   30.5200   28.6700   32.8800 C   0  0  0  0  0  0  0  0  0  0  0  0
   29.2900   28.0200   32.7700 C   0  0  0  0  0  0  0  0  0  0  0  0
   28.5200   27.7100   33.8900 C   0  0  0  0  0  0  0  0  0  0  0  0
   27.2700   27.0800   33.7600 C   0  0  0  0  0  0  0  0  0  0  0  0
   26.7500   26.8800   32.4900 N   0  0  0  0  0  0  0  0  0  0  0  0
   23.0471   25.9295   36.1404 C   0  0  0  0  0  0  0  0  0  0  0  0
   22.2385   26.5961   35.2037 C   0  0  0  0  0  0  0  0  0  0  0  0
   20.8505   26.4562   35.2371 C   0  0  0  0  0  0  0  0  0  0  0  0
   20.0610   27.1355   34.3024 O   0  0  0  0  0  0  0  0  0  0  0  0
   18.6443   27.2279   34.4465 C   0  0  0  0  0  0  0  0  0  0  0  0
   18.0797   25.9013   34.9578 C   0  0  0  0  0  0  0  0  0  0  0  0
   18.8017   25.4853   36.1702 N   0  0  0  0  0  0  0  0  0  0  0  0
   20.2407   25.6362   36.2002 C   0  0  0  0  0  0  0  0  0  0  0  0
   21.0434   24.9880   37.1561 C   0  0  0  0  0  0  0  0  0  0  0  0
   22.4454   25.1360   37.1361 C   0  0  0  0  0  0  0  0  0  0  0  0
   23.2706   24.5024   38.0807 O   0  0  0  0  0  0  0  0  0  0  0  0
   22.8020   23.6779   39.1431 C   0  0  0  0  0  0  0  0  0  0  0  0
   18.0630   24.9472   37.3172 C   0  0  0  0  0  0  0  0  0  0  0  0
   24.9727   26.0881   37.0514 H   0  0  0  0  0  0  0  0  0  0  0  0
   30.7582   28.6624   36.2441 H   0  0  0  0  0  0  0  0  0  0  0  0
   32.0993   29.2456   34.2468 H   0  0  0  0  0  0  0  0  0  0  0  0
   31.0716   28.9443   31.9899 H   0  0  0  0  0  0  0  0  0  0  0  0
   28.9437   27.8129   31.7669 H   0  0  0  0  0  0  0  0  0  0  0  0
   26.7154   27.6568   31.7928 H   0  0  0  0  0  0  0  0  0  0  0  0
   26.3613   25.9530   32.2111 H   0  0  0  0  0  0  0  0  0  0  0  0
   22.6815   27.2504   34.4640 H   0  0  0  0  0  0  0  0  0  0  0  0
   18.4043   28.0341   35.1727 H   0  0  0  0  0  0  0  0  0  0  0  0
   18.1894   27.4861   33.4672 H   0  0  0  0  0  0  0  0  0  0  0  0
   18.2131   25.1245   34.1742 H   0  0  0  0  0  0  0  0  0  0  0  0
   16.9913   26.0182   35.1498 H   0  0  0  0  0  0  0  0  0  0  0  0
   20.5827   24.3633   37.9063 H   0  0  0  0  0  0  0  0  0  0  0  0
   23.6700   23.3220   39.7351 H   0  0  0  0  0  0  0  0  0  0  0  0
   22.1308   24.2592   39.8105 H   0  0  0  0  0  0  0  0  0  0  0  0
   22.2664   22.7952   38.7335 H   0  0  0  0  0  0  0  0  0  0  0  0
   18.3258   23.8794   37.4672 H   0  0  0  0  0  0  0  0  0  0  0  0
   16.9654   25.0070   37.1604 H   0  0  0  0  0  0  0  0  0  0  0  0
   18.3133   25.5268   38.2308 H   0  0  0  0  0  0  0  0  0  0  0  0
  1  2  1  0
  2  3  2  0
  2  4  1  0
  4  5  2  0
  5  6  1  0
  6  7  2  0
  7  8  1  0
  8  9  2  0
  9 10  1  0
 10 11  2  0
 11 12  1  0
 12 13  2  0
 13 14  1  0
  1 15  1  0
 15 16  2  0
 16 17  1  0
 17 18  1  0
 18 19  1  0
 19 20  1  0
 20 21  1  0
 21 22  1  0
 22 23  1  0
 23 24  2  0
 24 25  1  0
 25 26  1  0
 21 27  1  0
 13  4  1  0
 24 15  1  0
 12  7  1  0
 22 17  2  0
  1 28  1  0
  8 29  1  0
  9 30  1  0
 10 31  1  0
 11 32  1  0
 14 33  1  0
 14 34  1  0
 16 35  1  0
 19 36  1  0
 19 37  1  0
 20 38  1  0
 20 39  1  0
 23 40  1  0
 26 41  1  0
 26 42  1  0
 26 43  1  0
 27 44  1  0
 27 45  1  0
 27 46  1  0
M  END
$$$$
confid_2
     RDKit          3D

 46 49  0  0  0  0  0  0  0  0999 V2000
   24.4800   26.1000   36.1300 N   0  0  0  0  0  0  0  0  0  0  0  0
   25.2500   26.2500   34.9900 C   0  0  0  0  0  0  0  0  0  0  0  0
   24.7400   25.7600   33.9900 O   0  0  0  0  0  0  0  0  0  0  0  0
   26.5900   26.8900   34.9600 C   0  0  0  0  0  0  0  0  0  0  0  0
   27.0600   27.2400   36.1600 N   0  0  0  0  0  0  0  0  0  0  0  0
   28.3000   27.7100   36.2400 N   0  0  0  0  0  0  0  0  0  0  0  0
   29.0500   27.9600   35.1500 C   0  0  0  0  0  0  0  0  0  0  0  0
   30.3400   28.4900   35.2600 C   0  0  0  0  0  0  0  0  0  0  0  0
   31.1100   28.8200   34.1400 C   0  0  0  0  0  0  0  0  0  0  0  0
   30.5200   28.6700   32.8800 C   0  0  0  0  0  0  0  0  0  0  0  0
   29.2900   28.0200   32.7700 C   0  0  0  0  0  0  0  0  0  0  0  0
   28.5200   27.7100   33.8900 C   0  0  0  0  0  0  0  0  0  0  0  0
   27.2700   27.0800   33.7600 C   0  0  0  0  0  0  0  0  0  0  0  0
   26.7500   26.8800   32.4900 N   0  0  0  0  0  0  0  0  0  0  0  0
   23.0636   25.8254   36.1384 C   0  0  0  0  0  0  0  0  0  0  0  0
   22.2093   26.4448   35.2122 C   0  0  0  0  0  0  0  0  0  0  0  0
   20.8356   26.1997   35.2387 C   0  0  0  0  0  0  0  0  0  0  0  0
   19.9991   26.8414   34.3207 O   0  0  0  0  0  0  0  0  0  0  0  0
   18.5830   26.8502   34.4876 C   0  0  0  0  0  0  0  0  0  0  0  0
   18.0998   25.4764   34.9528 C   0  0  0  0  0  0  0  0  0  0  0  0
   18.8649   25.0393   36.1310 N   0  0  0  0  0  0  0  0  0  0  0  0
   20.2865   25.3178   36.1838 C   0  0  0  0  0  0  0  0  0  0  0  0
   21.1343   24.7294   37.1412 C   0  0  0  0  0  0  0  0  0  0  0  0
   22.5202   24.9874   37.1305 C   0  0  0  0  0  0  0  0  0  0  0  0
   23.3867   24.4205   38.0801 O   0  0  0  0  0  0  0  0  0  0  0  0
   22.9677   23.6294   39.1889 C   0  0  0  0  0  0  0  0  0  0  0  0
   18.1927   24.2692   37.1826 C   0  0  0  0  0  0  0  0  0  0  0  0
   24.9653   26.1349   37.0538 H   0  0  0  0  0  0  0  0  0  0  0  0
   30.7582   28.6625   36.2440 H   0  0  0  0  0  0  0  0  0  0  0  0
   32.0993   29.2457   34.2468 H   0  0  0  0  0  0  0  0  0  0  0  0
   31.0718   28.9441   31.9899 H   0  0  0  0  0  0  0  0  0  0  0  0
   28.9435   27.8132   31.7670 H   0  0  0  0  0  0  0  0  0  0  0  0
   26.7142   27.6571   31.7932 H   0  0  0  0  0  0  0  0  0  0  0  0
   26.3630   25.9524   32.2107 H   0  0  0  0  0  0  0  0  0  0  0  0
   22.6047   27.1383   34.4815 H   0  0  0  0  0  0  0  0  0  0  0  0
   18.3124   27.6107   35.2521 H   0  0  0  0  0  0  0  0  0  0  0  0
   18.0988   27.1229   33.5273 H   0  0  0  0  0  0  0  0  0  0  0  0
   17.0136   25.5374   35.1790 H   0  0  0  0  0  0  0  0  0  0  0  0
   18.2477   24.7419   34.1323 H   0  0  0  0  0  0  0  0  0  0  0  0
   20.7231   24.0643   37.8843 H   0  0  0  0  0  0  0  0  0  0  0  0
   22.4729   22.7011   38.8318 H   0  0  0  0  0  0  0  0  0  0  0  0
   22.2727   24.2120   39.8313 H   0  0  0  0  0  0  0  0  0  0  0  0
   23.8575   23.3497   39.7903 H   0  0  0  0  0  0  0  0  0  0  0  0
   17.1041   24.1713   36.9847 H   0  0  0  0  0  0  0  0  0  0  0  0
   18.3228   24.7779   38.1618 H   0  0  0  0  0  0  0  0  0  0  0  0
   18.6199   23.2454   37.2330 H   0  0  0  0  0  0  0  0  0  0  0  0
  1  2  1  0
  2  3  2  0
  2  4  1  0
  4  5  2  0
  5  6  1  0
  6  7  2  0
  7  8  1  0
  8  9  2  0
  9 10  1  0
 10 11  2  0
 11 12  1  0
 12 13  2  0
 13 14  1  0
  1 15  1  0
 15 16  2  0
 16 17  1  0
 17 18  1  0
 18 19  1  0
 19 20  1  0
 20 21  1  0
 21 22  1  0
 22 23  1  0
 23 24  2  0
 24 25  1  0
 25 26  1  0
 21 27  1  0
 13  4  1  0
 24 15  1  0
 12  7  1  0
 22 17  2  0
  1 28  1  0
  8 29  1  0
  9 30  1  0
 10 31  1  0
 11 32  1  0
 14 33  1  0
 14 34  1  0
 16 35  1  0
 19 36  1  0
 19 37  1  0
 20 38  1  0
 20 39  1  0
 23 40  1  0
 26 41  1  0
 26 42  1  0
 26 43  1  0
 27 44  1  0
 27 45  1  0
 27 46  1  0
M  END
$$$$
confid_3
     RDKit          3D

 46 49  0  0  0  0  0  0  0  0999 V2000
   24.4800   26.1000   36.1300 N   0  0  0  0  0  0  0  0  0  0  0  0
   25.2500   26.2500   34.9900 C   0  0  0  0  0  0  0  0  0  0  0  0
   24.7400   25.7600   33.9900 O   0  0  0  0  0  0  0  0  0  0  0  0
   26.5900   26.8900   34.9600 C   0  0  0  0  0  0  0  0  0  0  0  0
   27.0600   27.2400   36.1600 N   0  0  0  0  0  0  0  0  0  0  0  0
   28.3000   27.7100   36.2400 N   0  0  0  0  0  0  0  0  0  0  0  0
   29.0500   27.9600   35.1500 C   0  0  0  0  0  0  0  0  0  0  0  0
   30.3400   28.4900   35.2600 C   0  0  0  0  0  0  0  0  0  0  0  0
   31.1100   28.8200   34.1400 C   0  0  0  0  0  0  0  0  0  0  0  0
   30.5200   28.6700   32.8800 C   0  0  0  0  0  0  0  0  0  0  0  0
   29.2900   28.0200   32.7700 C   0  0  0  0  0  0  0  0  0  0  0  0
   28.5200   27.7100   33.8900 C   0  0  0  0  0  0  0  0  0  0  0  0
   27.2700   27.0800   33.7600 C   0  0  0  0  0  0  0  0  0  0  0  0
   26.7500   26.8800   32.4900 N   0  0  0  0  0  0  0  0  0  0  0  0
   23.0434   25.9676   36.1400 C   0  0  0  0  0  0  0  0  0  0  0  0
   22.2524   26.6626   35.2087 C   0  0  0  0  0  0  0  0  0  0  0  0
   20.8624   26.5462   35.2312 C   0  0  0  0  0  0  0  0  0  0  0  0
   20.0932   27.2224   34.2782 O   0  0  0  0  0  0  0  0  0  0  0  0
   18.7066   26.9372   34.0987 C   0  0  0  0  0  0  0  0  0  0  0  0
   18.0354   26.7134   35.4547 C   0  0  0  0  0  0  0  0  0  0  0  0
   18.7834   25.7066   36.2234 N   0  0  0  0  0  0  0  0  0  0  0  0
   20.2295   25.7622   36.2093 C   0  0  0  0  0  0  0  0  0  0  0  0
   21.0159   25.0749   37.1515 C   0  0  0  0  0  0  0  0  0  0  0  0
   22.4217   25.1757   37.1244 C   0  0  0  0  0  0  0  0  0  0  0  0
   23.2306   24.4986   38.0523 O   0  0  0  0  0  0  0  0  0  0  0  0
   22.7415   23.6604   39.0943 C   0  0  0  0  0  0  0  0  0  0  0  0
   18.0637   24.6694   36.9700 C   0  0  0  0  0  0  0  0  0  0  0  0
   24.9747   26.0621   37.0495 H   0  0  0  0  0  0  0  0  0  0  0  0
   30.7580   28.6629   36.2441 H   0  0  0  0  0  0  0  0  0  0  0  0
   32.0983   29.2480   34.2470 H   0  0  0  0  0  0  0  0  0  0  0  0
   31.0669   28.9543   31.9901 H   0  0  0  0  0  0  0  0  0  0  0  0
   28.9258   27.8587   31.7655 H   0  0  0  0  0  0  0  0  0  0  0  0
   25.7671   27.1499   32.2661 H   0  0  0  0  0  0  0  0  0  0  0  0
   27.2969   26.3790   31.7552 H   0  0  0  0  0  0  0  0  0  0  0  0
   22.7126   27.3033   34.4672 H   0  0  0  0  0  0  0  0  0  0  0  0
   18.2214   27.7821   33.5663 H   0  0  0  0  0  0  0  0  0  0  0  0
   18.6013   26.0197   33.4803 H   0  0  0  0  0  0  0  0  0  0  0  0
   18.0326   27.6701   36.0202 H   0  0  0  0  0  0  0  0  0  0  0  0
   16.9810   26.4023   35.2915 H   0  0  0  0  0  0  0  0  0  0  0  0
   20.5380   24.4736   37.9096 H   0  0  0  0  0  0  0  0  0  0  0  0
   22.0964   24.2448   39.7839 H   0  0  0  0  0  0  0  0  0  0  0  0
   23.6008   23.2579   39.6686 H   0  0  0  0  0  0  0  0  0  0  0  0
   22.1720   22.8094   38.6646 H   0  0  0  0  0  0  0  0  0  0  0  0
   16.9711   24.7117   36.7778 H   0  0  0  0  0  0  0  0  0  0  0  0
   18.4288   23.6656   36.6659 H   0  0  0  0  0  0  0  0  0  0  0  0
   18.2219   24.8111   38.0595 H   0  0  0  0  0  0  0  0  0  0  0  0
  1  2  1  0
  2  3  2  0
  2  4  1  0
  4  5  2  0
  5  6  1  0
  6  7  2  0
  7  8  1  0
  8  9  2  0
  9 10  1  0
 10 11  2  0
 11 12  1  0
 12 13  2  0
 13 14  1  0
  1 15  1  0
 15 16  2  0
 16 17  1  0
 17 18  1  0
 18 19  1  0
 19 20  1  0
 20 21  1  0
 21 22  1  0
 22 23  1  0
 23 24  2  0
 24 25  1  0
 25 26  1  0
 21 27  1  0
 13  4  1  0
 24 15  1  0
 12  7  1  0
 22 17  2  0
  1 28  1  0
  8 29  1  0
  9 30  1  0
 10 31  1  0
 11 32  1  0
 14 33  1  0
 14 34  1  0
 16 35  1  0
 19 36  1  0
 19 37  1  0
 20 38  1  0
 20 39  1  0
 23 40  1  0
 26 41  1  0
 26 42  1  0
 26 43  1  0
 27 44  1  0
 27 45  1  0
 27 46  1  0
M  END
$$$$
confid_4
     RDKit          3D

 46 49  0  0  0  0  0  0  0  0999 V2000
   24.4800   26.1000   36.1300 N   0  0  0  0  0  0  0  0  0  0  0  0
   25.2500   26.2500   34.9900 C   0  0  0  0  0  0  0  0  0  0  0  0
   24.7400   25.7600   33.9900 O   0  0  0  0  0  0  0  0  0  0  0  0
   26.5900   26.8900   34.9600 C   0  0  0  0  0  0  0  0  0  0  0  0
   27.0600   27.2400   36.1600 N   0  0  0  0  0  0  0  0  0  0  0  0
   28.3000   27.7100   36.2400 N   0  0  0  0  0  0  0  0  0  0  0  0
   29.0500   27.9600   35.1500 C   0  0  0  0  0  0  0  0  0  0  0  0
   30.3400   28.4900   35.2600 C   0  0  0  0  0  0  0  0  0  0  0  0
   31.1100   28.8200   34.1400 C   0  0  0  0  0  0  0  0  0  0  0  0
   30.5200   28.6700   32.8800 C   0  0  0  0  0  0  0  0  0  0  0  0
   29.2900   28.0200   32.7700 C   0  0  0  0  0  0  0  0  0  0  0  0
   28.5200   27.7100   33.8900 C   0  0  0  0  0  0  0  0  0  0  0  0
   27.2700   27.0800   33.7600 C   0  0  0  0  0  0  0  0  0  0  0  0
   26.7500   26.8800   32.4900 N   0  0  0  0  0  0  0  0  0  0  0  0
   23.4975   25.0636   36.3333 C   0  0  0  0  0  0  0  0  0  0  0  0
   23.7115   23.7655   35.8385 C   0  0  0  0  0  0  0  0  0  0  0  0
   22.7696   22.7594   36.0550 C   0  0  0  0  0  0  0  0  0  0  0  0
   22.9872   21.4800   35.5324 O   0  0  0  0  0  0  0  0  0  0  0  0
   21.9533   20.4967   35.5087 C   0  0  0  0  0  0  0  0  0  0  0  0
   21.1394   20.5571   36.8023 C   0  0  0  0  0  0  0  0  0  0  0  0
   20.6823   21.9346   37.0415 N   0  0  0  0  0  0  0  0  0  0  0  0
   21.6095   23.0195   36.8023 C   0  0  0  0  0  0  0  0  0  0  0  0
   21.3968   24.3137   37.3103 C   0  0  0  0  0  0  0  0  0  0  0  0
   22.3379   25.3382   37.0832 C   0  0  0  0  0  0  0  0  0  0  0  0
   22.1511   26.6390   37.5800 O   0  0  0  0  0  0  0  0  0  0  0  0
   21.0293   27.0593   38.3498 C   0  0  0  0  0  0  0  0  0  0  0  0
   19.3100   22.1854   37.4939 C   0  0  0  0  0  0  0  0  0  0  0  0
   24.6044   26.8053   36.8909 H   0  0  0  0  0  0  0  0  0  0  0  0
   30.7582   28.6623   36.2441 H   0  0  0  0  0  0  0  0  0  0  0  0
   32.0994   29.2455   34.2469 H   0  0  0  0  0  0  0  0  0  0  0  0
   31.0716   28.9442   31.9898 H   0  0  0  0  0  0  0  0  0  0  0  0
   28.9437   27.8128   31.7669 H   0  0  0  0  0  0  0  0  0  0  0  0
   26.3616   25.9529   32.2111 H   0  0  0  0  0  0  0  0  0  0  0  0
   26.7156   27.6566   31.7925 H   0  0  0  0  0  0  0  0  0  0  0  0
   24.6152   23.5286   35.2917 H   0  0  0  0  0  0  0  0  0  0  0  0
   22.4041   19.4894   35.3870 H   0  0  0  0  0  0  0  0  0  0  0  0
   21.2840   20.6935   34.6436 H   0  0  0  0  0  0  0  0  0  0  0  0
   21.7829   20.2384   37.6504 H   0  0  0  0  0  0  0  0  0  0  0  0
   20.2855   19.8498   36.7285 H   0  0  0  0  0  0  0  0  0  0  0  0
   20.5105   24.5211   37.8902 H   0  0  0  0  0  0  0  0  0  0  0  0
   20.0948   26.9341   37.7632 H   0  0  0  0  0  0  0  0  0  0  0  0
   21.1468   28.1324   38.6048 H   0  0  0  0  0  0  0  0  0  0  0  0
   20.9722   26.4747   39.2923 H   0  0  0  0  0  0  0  0  0  0  0  0
   18.7092   21.2520   37.5120 H   0  0  0  0  0  0  0  0  0  0  0  0
   18.8128   22.9025   36.8070 H   0  0  0  0  0  0  0  0  0  0  0  0
   19.3225   22.6005   38.5232 H   0  0  0  0  0  0  0  0  0  0  0  0
  1  2  1  0
  2  3  2  0
  2  4  1  0
  4  5  2  0
  5  6  1  0
  6  7  2  0
  7  8  1  0
  8  9  2  0
  9 10  1  0
 10 11  2  0
 11 12  1  0
 12 13  2  0
 13 14  1  0
  1 15  1  0
 15 16  2  0
 16 17  1  0
 17 18  1  0
 18 19  1  0
 19 20  1  0
 20 21  1  0
 21 22  1  0
 22 23  1  0
 23 24  2  0
 24 25  1  0
 25 26  1  0
 21 27  1  0
 13  4  1  0
 24 15  1  0
 12  7  1  0
 22 17  2  0
  1 28  1  0
  8 29  1  0
  9 30  1  0
 10 31  1  0
 11 32  1  0
 14 33  1  0
 14 34  1  0
 16 35  1  0
 19 36  1  0
 19 37  1  0
 20 38  1  0
 20 39  1  0
 23 40  1  0
 26 41  1  0
 26 42  1  0
 26 43  1  0
 27 44  1  0
 27 45  1  0
 27 46  1  0
M  END
$$$$
confid_5
     RDKit          3D

 46 49  0  0  0  0  0  0  0  0999 V2000
   24.4800   26.1000   36.1300 N   0  0  0  0  0  0  0  0  0  0  0  0
   25.2500   26.2500   34.9900 C   0  0  0  0  0  0  0  0  0  0  0  0
   24.7400   25.7600   33.9900 O   0  0  0  0  0  0  0  0  0  0  0  0
   26.5900   26.8900   34.9600 C   0  0  0  0  0  0  0  0  0  0  0  0
   27.0600   27.2400   36.1600 N   0  0  0  0  0  0  0  0  0  0  0  0
   28.3000   27.7100   36.2400 N   0  0  0  0  0  0  0  0  0  0  0  0
   29.0500   27.9600   35.1500 C   0  0  0  0  0  0  0  0  0  0  0  0
   30.3400   28.4900   35.2600 C   0  0  0  0  0  0  0  0  0  0  0  0
   31.1100   28.8200   34.1400 C   0  0  0  0  0  0  0  0  0  0  0  0
   30.5200   28.6700   32.8800 C   0  0  0  0  0  0  0  0  0  0  0  0
   29.2900   28.0200   32.7700 C   0  0  0  0  0  0  0  0  0  0  0  0
   28.5200   27.7100   33.8900 C   0  0  0  0  0  0  0  0  0  0  0  0
   27.2700   27.0800   33.7600 C   0  0  0  0  0  0  0  0  0  0  0  0
   26.7500   26.8800   32.4900 N   0  0  0  0  0  0  0  0  0  0  0  0
   23.0879   25.7175   36.1480 C   0  0  0  0  0  0  0  0  0  0  0  0
   22.1837   26.2501   35.2130 C   0  0  0  0  0  0  0  0  0  0  0  0
   20.8404   25.8746   35.2343 C   0  0  0  0  0  0  0  0  0  0  0  0
   19.9606   26.3832   34.2723 O   0  0  0  0  0  0  0  0  0  0  0  0
   18.6466   25.8467   34.1010 C   0  0  0  0  0  0  0  0  0  0  0  0
   18.0330   25.5191   35.4629 C   0  0  0  0  0  0  0  0  0  0  0  0
   18.9551   24.6603   36.2237 N   0  0  0  0  0  0  0  0  0  0  0  0
   20.3626   24.9940   36.2181 C   0  0  0  0  0  0  0  0  0  0  0  0
   21.2576   24.4765   37.1692 C   0  0  0  0  0  0  0  0  0  0  0  0
   22.6203   24.8348   37.1411 C   0  0  0  0  0  0  0  0  0  0  0  0
   23.5383   24.3248   38.0742 O   0  0  0  0  0  0  0  0  0  0  0  0
   23.2224   23.3694   39.0798 C   0  0  0  0  0  0  0  0  0  0  0  0
   18.4665   23.4356   36.8638 C   0  0  0  0  0  0  0  0  0  0  0  0
   24.9531   26.2047   37.0557 H   0  0  0  0  0  0  0  0  0  0  0  0
   30.7574   28.6640   36.2441 H   0  0  0  0  0  0  0  0  0  0  0  0
   32.0977   29.2494   34.2465 H   0  0  0  0  0  0  0  0  0  0  0  0
   31.0659   28.9556   31.9899 H   0  0  0  0  0  0  0  0  0  0  0  0
   28.9254   27.8595   31.7656 H   0  0  0  0  0  0  0  0  0  0  0  0
   27.2974   26.3792   31.7554 H   0  0  0  0  0  0  0  0  0  0  0  0
   25.7670   27.1492   32.2658 H   0  0  0  0  0  0  0  0  0  0  0  0
   22.5201   26.9553   34.4625 H   0  0  0  0  0  0  0  0  0  0  0  0
   18.7087   24.9167   33.4933 H   0  0  0  0  0  0  0  0  0  0  0  0
   18.0111   26.5831   33.5602 H   0  0  0  0  0  0  0  0  0  0  0  0
   17.8712   26.4653   36.0251 H   0  0  0  0  0  0  0  0  0  0  0  0
   17.0432   25.0323   35.3135 H   0  0  0  0  0  0  0  0  0  0  0  0
   20.8943   23.8065   37.9337 H   0  0  0  0  0  0  0  0  0  0  0  0
   22.8376   22.4436   38.6144 H   0  0  0  0  0  0  0  0  0  0  0  0
   24.1420   23.1305   39.6480 H   0  0  0  0  0  0  0  0  0  0  0  0
   22.4756   23.7861   39.7851 H   0  0  0  0  0  0  0  0  0  0  0  0
   19.0440   22.5628   36.4934 H   0  0  0  0  0  0  0  0  0  0  0  0
   17.3944   23.2595   36.6442 H   0  0  0  0  0  0  0  0  0  0  0  0
   18.5767   23.5131   37.9652 H   0  0  0  0  0  0  0  0  0  0  0  0
  1  2  1  0
  2  3  2  0
  2  4  1  0
  4  5  2  0
  5  6  1  0
  6  7  2  0
  7  8  1  0
  8  9  2  0
  9 10  1  0
 10 11  2  0
 11 12  1  0
 12 13  2  0
 13 14  1  0
  1 15  1  0
 15 16  2  0
 16 17  1  0
 17 18  1  0
 18 19  1  0
 19 20  1  0
 20 21  1  0
 21 22  1  0
 22 23  1  0
 23 24  2  0
 24 25  1  0
 25 26  1  0
 21 27  1  0
 13  4  1  0
 24 15  1  0
 12  7  1  0
 22 17  2  0
  1 28  1  0
  8 29  1  0
  9 30  1  0
 10 31  1  0
 11 32  1  0
 14 33  1  0
 14 34  1  0
 16 35  1  0
 19 36  1  0
 19 37  1  0
 20 38  1  0
 20 39  1  0
 23 40  1  0
 26 41  1  0
 26 42  1  0
 26 43  1  0
 27 44  1  0
 27 45  1  0
 27 46  1  0
M  END
$$$$
