confid_0
     RDKit          3D

 39 42  0  0  0  0  0  0  0  0999 V2000
   25.3300   26.2600   34.7600 N   0  0  0  0  0  0  0  0  0  0  0  0
   26.1200   25.9200   33.6900 C   0  0  0  0  0  0  0  0  0  0  0  0
   25.6300   25.1100   32.9400 O   0  0  0  0  0  0  0  0  0  0  0  0
   27.5200   26.3800   33.4600 C   0  0  0  0  0  0  0  0  0  0  0  0
   28.1600   26.6300   34.6100 N   0  0  0  0  0  0  0  0  0  0  0  0
   29.4800   26.8500   34.5700 N   0  0  0  0  0  0  0  0  0  0  0  0
   30.1900   26.7800   33.4400 C   0  0  0  0  0  0  0  0  0  0  0  0
   31.5600   27.0500   33.5000 C   0  0  0  0  0  0  0  0  0  0  0  0
   32.2700   27.2400   32.3100 C   0  0  0  0  0  0  0  0  0  0  0  0
   31.6100   27.2500   31.0800 C   0  0  0  0  0  0  0  0  0  0  0  0
   30.2700   26.8700   31.0600 C   0  0  0  0  0  0  0  0  0  0  0  0
   29.5100   26.6900   32.2300 C   0  0  0  0  0  0  0  0  0  0  0  0
   28.1400   26.4100   32.2000 C   0  0  0  0  0  0  0  0  0  0  0  0
   27.4300   26.1300   31.0500 N   0  0  0  0  0  0  0  0  0  0  0  0
   24.1514   25.5583   35.2079 C   0  0  0  0  0  0  0  0  0  0  0  0
   23.8381   24.3216   34.7106 N   0  0  0  0  0  0  0  0  0  0  0  0
   22.7375   23.6642   35.1540 C   0  0  0  0  0  0  0  0  0  0  0  0
   22.2605   22.3138   34.7102 C   0  0  0  0  0  0  0  0  0  0  0  0
   21.0517   22.1164   35.5158 N   0  0  0  0  0  0  0  0  0  0  0  0
   20.8577   23.2565   36.3478 C   0  0  0  0  0  0  0  0  0  0  0  0
   19.9031   23.3898   37.1587 O   0  0  0  0  0  0  0  0  0  0  0  0
   21.9159   24.2113   36.1107 C   0  0  0  0  0  0  0  0  0  0  0  0
   22.1883   25.4629   36.6598 C   0  0  0  0  0  0  0  0  0  0  0  0
   21.1581   26.1810   37.8868 Cl  0  0  0  0  0  0  0  0  0  0  0  0
   23.3276   26.1428   36.1997 C   0  0  0  0  0  0  0  0  0  0  0  0
   20.1890   20.9433   35.4731 C   0  0  0  0  0  0  0  0  0  0  0  0
   25.6200   27.1032   35.3057 H   0  0  0  0  0  0  0  0  0  0  0  0
   32.0668   27.1425   34.4530 H   0  0  0  0  0  0  0  0  0  0  0  0
   33.3288   27.4608   32.3494 H   0  0  0  0  0  0  0  0  0  0  0  0
   32.1515   27.4335   30.1608 H   0  0  0  0  0  0  0  0  0  0  0  0
   29.8039   26.7906   30.0880 H   0  0  0  0  0  0  0  0  0  0  0  0
   26.8611   25.2624   30.9527 H   0  0  0  0  0  0  0  0  0  0  0  0
   27.5768   26.6942   30.1847 H   0  0  0  0  0  0  0  0  0  0  0  0
   22.0091   22.3228   33.6285 H   0  0  0  0  0  0  0  0  0  0  0  0
   23.0156   21.5343   34.9457 H   0  0  0  0  0  0  0  0  0  0  0  0
   23.5713   27.1166   36.6058 H   0  0  0  0  0  0  0  0  0  0  0  0
   19.1631   21.2457   35.1760 H   0  0  0  0  0  0  0  0  0  0  0  0
   20.1571   20.4674   36.4754 H   0  0  0  0  0  0  0  0  0  0  0  0
   20.5763   20.2081   34.7365 H   0  0  0  0  0  0  0  0  0  0  0  0
  1  2  1  0
  2  3  2  0
  2  4  1  0
  4  5  2  0
  5  6  1  0
  6  7  2  0
  7  8  1  0
  8  9  2  0
  9 10  1  0
 10 11  2  0
 11 12  1  0
 12 13  2  0
 13 14  1  0
  1 15  1  0
 15 16  2  0
 16 17  1  0
 17 18  1  0
 18 19  1  0
 19 20  1  0
 20 21  2  0
 20 22  1  0
 22 23  1  0
 23 24  1  0
 23 25  2  0
 19 26  1  0
 13  4  1  0
 25 15  1  0
 12  7  1  0
 22 17  2  0
  1 27  1  0
  8 28  1  0
  9 29  1  0
 10 30  1  0
 11 31  1  0
 14 32  1  0
 14 33  1  0
 18 34  1  0
 18 35  1  0
 25 36  1  0
 26 37  1  0
 26 38  1  0
 26 39  1  0
M  END
$$$$
confid_1
     RDKit          3D

 39 42  0  0  0  0  0  0  0  0999 V2000
   25.3300   26.2600   34.7600 N   0  0  0  0  0  0  0  0  0  0  0  0
   26.1200   25.9200   33.6900 C   0  0  0  0  0  0  0  0  0  0  0  0
   25.6300   25.1100   32.9400 O   0  0  0  0  0  0  0  0  0  0  0  0
   27.5200   26.3800   33.4600 C   0  0  0  0  0  0  0  0  0  0  0  0
   28.1600   26.6300   34.6100 N   0  0  0  0  0  0  0  0  0  0  0  0
   29.4800   26.8500   34.5700 N   0  0  0  0  0  0  0  0  0  0  0  0
   30.1900   26.7800   33.4400 C   0  0  0  0  0  0  0  0  0  0  0  0
   31.5600   27.0500   33.5000 C   0  0  0  0  0  0  0  0  0  0  0  0
   32.2700   27.2400   32.3100 C   0  0  0  0  0  0  0  0  0  0  0  0
   31.6100   27.2500   31.0800 C   0  0  0  0  0  0  0  0  0  0  0  0
   30.2700   26.8700   31.0600 C   0  0  0  0  0  0  0  0  0  0  0  0
   29.5100   26.6900   32.2300 C   0  0  0  0  0  0  0  0  0  0  0  0
   28.1400   26.4100   32.2000 C   0  0  0  0  0  0  0  0  0  0  0  0
   27.4300   26.1300   31.0500 N   0  0  0  0  0  0  0  0  0  0  0  0
   23.9001   26.0867   34.8373 C   0  0  0  0  0  0  0  0  0  0  0  0
   23.1739   25.7462   33.7274 N   0  0  0  0  0  0  0  0  0  0  0  0
   21.8271   25.6049   33.8078 C   0  0  0  0  0  0  0  0  0  0  0  0
   20.8963   25.2365   32.6917 C   0  0  0  0  0  0  0  0  0  0  0  0
   19.5861   25.2372   33.3491 N   0  0  0  0  0  0  0  0  0  0  0  0
   19.7562   25.5779   34.7219 C   0  0  0  0  0  0  0  0  0  0  0  0
   18.8148   25.6635   35.5544 O   0  0  0  0  0  0  0  0  0  0  0  0
   21.1575   25.8039   34.9918 C   0  0  0  0  0  0  0  0  0  0  0  0
   21.8421   26.1601   36.1524 C   0  0  0  0  0  0  0  0  0  0  0  0
   21.0097   26.4254   37.6752 Cl  0  0  0  0  0  0  0  0  0  0  0  0
   23.2363   26.3056   36.0683 C   0  0  0  0  0  0  0  0  0  0  0  0
   18.3151   24.9388   32.7025 C   0  0  0  0  0  0  0  0  0  0  0  0
   25.7937   26.7311   35.5693 H   0  0  0  0  0  0  0  0  0  0  0  0
   32.0668   27.1429   34.4530 H   0  0  0  0  0  0  0  0  0  0  0  0
   33.3284   27.4627   32.3495 H   0  0  0  0  0  0  0  0  0  0  0  0
   32.1496   27.4414   30.1613 H   0  0  0  0  0  0  0  0  0  0  0  0
   29.7983   26.8254   30.0886 H   0  0  0  0  0  0  0  0  0  0  0  0
   27.8914   25.7241   30.2071 H   0  0  0  0  0  0  0  0  0  0  0  0
   26.4123   26.3490   30.9739 H   0  0  0  0  0  0  0  0  0  0  0  0
   20.9273   26.0011   31.8868 H   0  0  0  0  0  0  0  0  0  0  0  0
   21.1341   24.2246   32.3007 H   0  0  0  0  0  0  0  0  0  0  0  0
   23.8007   26.5835   36.9496 H   0  0  0  0  0  0  0  0  0  0  0  0
   17.8433   24.0627   33.1944 H   0  0  0  0  0  0  0  0  0  0  0  0
   17.6398   25.8158   32.7854 H   0  0  0  0  0  0  0  0  0  0  0  0
   18.4755   24.7069   31.6284 H   0  0  0  0  0  0  0  0  0  0  0  0
  1  2  1  0
  2  3  2  0
  2  4  1  0
  4  5  2  0
  5  6  1  0
  6  7  2  0
  7  8  1  0
  8  9  2  0
  9 10  1  0
 10 11  2  0
 11 12  1  0
 12 13  2  0
 13 14  1  0
  1 15  1  0
 15 16  2  0
 16 17  1  0
 17 18  1  0
 18 19  1  0
 19 20  1  0
 20 21  2  0
 20 22  1  0
 22 23  1  0
 23 24  1  0
 23 25  2  0
 19 26  1  0
 13  4  1  0
 25 15  1  0
 12  7  1  0
 22 17  2  0
  1 27  1  0
  8 28  1  0
  9 29  1  0
 10 30  1  0
 11 31  1  0
 14 32  1  0
 14 33  1  0
 18 34  1  0
 18 35  1  0
 25 36  1  0
 26 37  1  0
 26 38  1  0
 26 39  1  0
M  END
$$$$
confid_2
     RDKit          3D

 39 42  0  0  0  0  0  0  0  0999 V2000
   25.3300   26.2600   34.7600 N   0  0  0  0  0  0  0  0  0  0  0  0
   26.1200   25.9200   33.6900 C   0  0  0  0  0  0  0  0  0  0  0  0
   25.6300   25.1100   32.9400 O   0  0  0  0  0  0  0  0  0  0  0  0
   27.5200   26.3800   33.4600 C   0  0  0  0  0  0  0  0  0  0  0  0
   28.1600   26.6300   34.6100 N   0  0  0  0  0  0  0  0  0  0  0  0
   29.4800   26.8500   34.5700 N   0  0  0  0  0  0  0  0  0  0  0  0
   30.1900   26.7800   33.4400 C   0  0  0  0  0  0  0  0  0  0  0  0
   31.5600   27.0500   33.5000 C   0  0  0  0  0  0  0  0  0  0  0  0
   32.2700   27.2400   32.3100 C   0  0  0  0  0  0  0  0  0  0  0  0
   31.6100   27.2500   31.0800 C   0  0  0  0  0  0  0  0  0  0  0  0
   30.2700   26.8700   31.0600 C   0  0  0  0  0  0  0  0  0  0  0  0
   29.5100   26.6900   32.2300 C   0  0  0  0  0  0  0  0  0  0  0  0
   28.1400   26.4100   32.2000 C   0  0  0  0  0  0  0  0  0  0  0  0
   27.4300   26.1300   31.0500 N   0  0  0  0  0  0  0  0  0  0  0  0
   24.2318   25.4852   35.2752 C   0  0  0  0  0  0  0  0  0  0  0  0
   23.1835   26.1378   35.8623 N   0  0  0  0  0  0  0  0  0  0  0  0
   22.1463   25.4363   36.3845 C   0  0  0  0  0  0  0  0  0  0  0  0
   20.9291   26.0009   37.0538 C   0  0  0  0  0  0  0  0  0  0  0  0
   20.1732   24.7992   37.4189 N   0  0  0  0  0  0  0  0  0  0  0  0
   20.8987   23.6486   36.9954 C   0  0  0  0  0  0  0  0  0  0  0  0
   20.5119   22.4622   37.1671 O   0  0  0  0  0  0  0  0  0  0  0  0
   22.1247   24.0621   36.3524 C   0  0  0  0  0  0  0  0  0  0  0  0
   23.1754   23.3407   35.7888 C   0  0  0  0  0  0  0  0  0  0  0  0
   23.1848   21.5852   35.7622 Cl  0  0  0  0  0  0  0  0  0  0  0  0
   24.2491   24.0663   35.2480 C   0  0  0  0  0  0  0  0  0  0  0  0
   18.8888   24.7841   38.1063 C   0  0  0  0  0  0  0  0  0  0  0  0
   25.5090   27.1868   35.2082 H   0  0  0  0  0  0  0  0  0  0  0  0
   32.0668   27.1425   34.4530 H   0  0  0  0  0  0  0  0  0  0  0  0
   33.3288   27.4608   32.3494 H   0  0  0  0  0  0  0  0  0  0  0  0
   32.1515   27.4335   30.1608 H   0  0  0  0  0  0  0  0  0  0  0  0
   29.8039   26.7906   30.0880 H   0  0  0  0  0  0  0  0  0  0  0  0
   27.5768   26.6942   30.1847 H   0  0  0  0  0  0  0  0  0  0  0  0
   26.8612   25.2624   30.9528 H   0  0  0  0  0  0  0  0  0  0  0  0
   20.3461   26.6260   36.3448 H   0  0  0  0  0  0  0  0  0  0  0  0
   21.2114   26.5730   37.9629 H   0  0  0  0  0  0  0  0  0  0  0  0
   25.0947   23.5309   34.8366 H   0  0  0  0  0  0  0  0  0  0  0  0
   18.9855   24.2329   39.0649 H   0  0  0  0  0  0  0  0  0  0  0  0
   18.1306   24.2837   37.4685 H   0  0  0  0  0  0  0  0  0  0  0  0
   18.5543   25.8215   38.3185 H   0  0  0  0  0  0  0  0  0  0  0  0
  1  2  1  0
  2  3  2  0
  2  4  1  0
  4  5  2  0
  5  6  1  0
  6  7  2  0
  7  8  1  0
  8  9  2  0
  9 10  1  0
 10 11  2  0
 11 12  1  0
 12 13  2  0
 13 14  1  0
  1 15  1  0
 15 16  2  0
 16 17  1  0
 17 18  1  0
 18 19  1  0
 19 20  1  0
 20 21  2  0
 20 22  1  0
 22 23  1  0
 23 24  1  0
 23 25  2  0
 19 26  1  0
 13  4  1  0
 25 15  1  0
 12  7  1  0
 22 17  2  0
  1 27  1  0
  8 28  1  0
  9 29  1  0
 10 30  1  0
 11 31  1  0
 14 32  1  0
 14 33  1  0
 18 34  1  0
 18 35  1  0
 25 36  1  0
 26 37  1  0
 26 38  1  0
 26 39  1  0
M  END
$$$$
confid_3
     RDKit          3D

 39 42  0  0  0  0  0  0  0  0999 V2000
   25.3300   26.2600   34.7600 N   0  0  0  0  0  0  0  0  0  0  0  0
   26.1200   25.9200   33.6900 C   0  0  0  0  0  0  0  0  0  0  0  0
   25.6300   25.1100   32.9400 O   0  0  0  0  0  0  0  0  0  0  0  0
   27.5200   26.3800   33.4600 C   0  0  0  0  0  0  0  0  0  0  0  0
   28.1600   26.6300   34.6100 N   0  0  0  0  0  0  0  0  0  0  0  0
   29.4800   26.8500   34.5700 N   0  0  0  0  0  0  0  0  0  0  0  0
   30.1900   26.7800   33.4400 C   0  0  0  0  0  0  0  0  0  0  0  0
   31.5600   27.0500   33.5000 C   0  0  0  0  0  0  0  0  0  0  0  0
   32.2700   27.2400   32.3100 C   0  0  0  0  0  0  0  0  0  0  0  0
   31.6100   27.2500   31.0800 C   0  0  0  0  0  0  0  0  0  0  0  0
   30.2700   26.8700   31.0600 C   0  0  0  0  0  0  0  0  0  0  0  0
   29.5100   26.6900   32.2300 C   0  0  0  0  0  0  0  0  0  0  0  0
   28.1400   26.4100   32.2000 C   0  0  0  0  0  0  0  0  0  0  0  0
   27.4300   26.1300   31.0500 N   0  0  0  0  0  0  0  0  0  0  0  0
   24.0026   25.7691   35.0520 C   0  0  0  0  0  0  0  0  0  0  0  0
   23.3960   24.8442   34.2446 N   0  0  0  0  0  0  0  0  0  0  0  0
   22.1500   24.3929   34.5340 C   0  0  0  0  0  0  0  0  0  0  0  0
   21.3567   23.3882   33.7533 C   0  0  0  0  0  0  0  0  0  0  0  0
   20.1113   23.2920   34.5206 N   0  0  0  0  0  0  0  0  0  0  0  0
   20.1890   24.1670   35.6421 C   0  0  0  0  0  0  0  0  0  0  0  0
   19.2736   24.3111   36.4953 O   0  0  0  0  0  0  0  0  0  0  0  0
   21.4648   24.8452   35.6362 C   0  0  0  0  0  0  0  0  0  0  0  0
   22.0295   25.7855   36.4957 C   0  0  0  0  0  0  0  0  0  0  0  0
   21.1757   26.3789   37.9102 Cl  0  0  0  0  0  0  0  0  0  0  0  0
   23.3195   26.2519   36.1949 C   0  0  0  0  0  0  0  0  0  0  0  0
   18.9775   22.4393   34.1895 C   0  0  0  0  0  0  0  0  0  0  0  0
   25.7232   26.9671   35.4218 H   0  0  0  0  0  0  0  0  0  0  0  0
   32.0668   27.1429   34.4530 H   0  0  0  0  0  0  0  0  0  0  0  0
   33.3284   27.4627   32.3495 H   0  0  0  0  0  0  0  0  0  0  0  0
   32.1496   27.4414   30.1613 H   0  0  0  0  0  0  0  0  0  0  0  0
   29.7983   26.8254   30.0886 H   0  0  0  0  0  0  0  0  0  0  0  0
   27.8914   25.7240   30.2072 H   0  0  0  0  0  0  0  0  0  0  0  0
   26.4124   26.3491   30.9738 H   0  0  0  0  0  0  0  0  0  0  0  0
   21.1529   23.7613   32.7273 H   0  0  0  0  0  0  0  0  0  0  0  0
   21.8773   22.4075   33.7334 H   0  0  0  0  0  0  0  0  0  0  0  0
   23.7882   26.9826   36.8420 H   0  0  0  0  0  0  0  0  0  0  0  0
   18.7898   21.7289   35.0215 H   0  0  0  0  0  0  0  0  0  0  0  0
   19.1872   21.8634   33.2635 H   0  0  0  0  0  0  0  0  0  0  0  0
   18.0749   23.0650   34.0286 H   0  0  0  0  0  0  0  0  0  0  0  0
  1  2  1  0
  2  3  2  0
  2  4  1  0
  4  5  2  0
  5  6  1  0
  6  7  2  0
  7  8  1  0
  8  9  2  0
  9 10  1  0
 10 11  2  0
 11 12  1  0
 12 13  2  0
 13 14  1  0
  1 15  1  0
 15 16  2  0
 16 17  1  0
 17 18  1  0
 18 19  1  0
 19 20  1  0
 20 21  2  0
 20 22  1  0
 22 23  1  0
 23 24  1  0
 23 25  2  0
 19 26  1  0
 13  4  1  0
 25 15  1  0
 12  7  1  0
 22 17  2  0
  1 27  1  0
  8 28  1  0
  9 29  1  0
 10 30  1  0
 11 31  1  0
 14 32  1  0
 14 33  1  0
 18 34  1  0
 18 35  1  0
 25 36  1  0
 26 37  1  0
 26 38  1  0
 26 39  1  0
M  END
$$$$
confid_4
     RDKit          3D

 39 42  0  0  0  0  0  0  0  0999 V2000
   25.3300   26.2600   34.7600 N   0  0  0  0  0  0  0  0  0  0  0  0
   26.1200   25.9200   33.6900 C   0  0  0  0  0  0  0  0  0  0  0  0
   25.6300   25.1100   32.9400 O   0  0  0  0  0  0  0  0  0  0  0  0
   27.5200   26.3800   33.4600 C   0  0  0  0  0  0  0  0  0  0  0  0
   28.1600   26.6300   34.6100 N   0  0  0  0  0  0  0  0  0  0  0  0
   29.4800   26.8500   34.5700 N   0  0  0  0  0  0  0  0  0  0  0  0
   30.1900   26.7800   33.4400 C   0  0  0  0  0  0  0  0  0  0  0  0
   31.5600   27.0500   33.5000 C   0  0  0  0  0  0  0  0  0  0  0  0
   32.2700   27.2400   32.3100 C   0  0  0  0  0  0  0  0  0  0  0  0
   31.6100   27.2500   31.0800 C   0  0  0  0  0  0  0  0  0  0  0  0
   30.2700   26.8700   31.0600 C   0  0  0  0  0  0  0  0  0  0  0  0
   29.5100   26.6900   32.2300 C   0  0  0  0  0  0  0  0  0  0  0  0
   28.1400   26.4100   32.2000 C   0  0  0  0  0  0  0  0  0  0  0  0
   27.4300   26.1300   31.0500 N   0  0  0  0  0  0  0  0  0  0  0  0
   23.8913   26.2160   34.7781 C   0  0  0  0  0  0  0  0  0  0  0  0
   23.2531   26.0318   35.9732 N   0  0  0  0  0  0  0  0  0  0  0  0
   21.8978   26.0121   36.0301 C   0  0  0  0  0  0  0  0  0  0  0  0
   21.0549   25.8183   37.2551 C   0  0  0  0  0  0  0  0  0  0  0  0
   19.6904   25.8984   36.7255 N   0  0  0  0  0  0  0  0  0  0  0  0
   19.7510   26.1205   35.3196 C   0  0  0  0  0  0  0  0  0  0  0  0
   18.7418   26.2380   34.5751 O   0  0  0  0  0  0  0  0  0  0  0  0
   21.1324   26.1882   34.9019 C   0  0  0  0  0  0  0  0  0  0  0  0
   21.7249   26.4023   33.6588 C   0  0  0  0  0  0  0  0  0  0  0  0
   20.7690   26.6572   32.2084 Cl  0  0  0  0  0  0  0  0  0  0  0  0
   23.1276   26.4226   33.5992 C   0  0  0  0  0  0  0  0  0  0  0  0
   18.4696   25.7737   37.5107 C   0  0  0  0  0  0  0  0  0  0  0  0
   25.8019   26.5576   35.6432 H   0  0  0  0  0  0  0  0  0  0  0  0
   32.0668   27.1429   34.4530 H   0  0  0  0  0  0  0  0  0  0  0  0
   33.3284   27.4627   32.3495 H   0  0  0  0  0  0  0  0  0  0  0  0
   32.1496   27.4414   30.1613 H   0  0  0  0  0  0  0  0  0  0  0  0
   29.7983   26.8254   30.0886 H   0  0  0  0  0  0  0  0  0  0  0  0
   27.8913   25.7243   30.2070 H   0  0  0  0  0  0  0  0  0  0  0  0
   26.4122   26.3488   30.9741 H   0  0  0  0  0  0  0  0  0  0  0  0
   21.2393   24.8194   37.7040 H   0  0  0  0  0  0  0  0  0  0  0  0
   21.2353   26.6330   37.9880 H   0  0  0  0  0  0  0  0  0  0  0  0
   23.6129   26.6207   32.6525 H   0  0  0  0  0  0  0  0  0  0  0  0
   18.7161   25.6062   38.5804 H   0  0  0  0  0  0  0  0  0  0  0  0
   17.8734   24.9144   37.1389 H   0  0  0  0  0  0  0  0  0  0  0  0
   17.8712   26.7042   37.4197 H   0  0  0  0  0  0  0  0  0  0  0  0
  1  2  1  0
  2  3  2  0
  2  4  1  0
  4  5  2  0
  5  6  1  0
  6  7  2  0
  7  8  1  0
  8  9  2  0
  9 10  1  0
 10 11  2  0
 11 12  1  0
 12 13  2  0
 13 14  1  0
  1 15  1  0
 15 16  2  0
 16 17  1  0
 17 18  1  0
 18 19  1  0
 19 20  1  0
 20 21  2  0
 20 22  1  0
 22 23  1  0
 23 24  1  0
 23 25  2  0
 19 26  1  0
 13  4  1  0
 25 15  1  0
 12  7  1  0
 22 17  2  0
  1 27  1  0
  8 28  1  0
  9 29  1  0
 10 30  1  0
 11 31  1  0
 14 32  1  0
 14 33  1  0
 18 34  1  0
 18 35  1  0
 25 36  1  0
 26 37  1  0
 26 38  1  0
 26 39  1  0
M  END
$$$$
