confid_0
     RDKit          3D

 45 48  0  0  0  0  0  0  0  0999 V2000
   24.6900   26.1200   35.5300 N   0  0  0  0  0  0  0  0  0  0  0  0
   25.6600   25.6700   34.6600 C   0  0  0  0  0  0  0  0  0  0  0  0
   25.2400   25.0100   33.7200 O   0  0  0  0  0  0  0  0  0  0  0  0
   27.0300   26.2200   34.8800 C   0  0  0  0  0  0  0  0  0  0  0  0
   27.3500   26.7300   36.0700 N   0  0  0  0  0  0  0  0  0  0  0  0
   28.5700   27.1800   36.3300 N   0  0  0  0  0  0  0  0  0  0  0  0
   29.5300   27.1100   35.3900 C   0  0  0  0  0  0  0  0  0  0  0  0
   30.8300   27.5700   35.6500 C   0  0  0  0  0  0  0  0  0  0  0  0
   31.8500   27.5400   34.6900 C   0  0  0  0  0  0  0  0  0  0  0  0
   31.5100   27.1200   33.4000 C   0  0  0  0  0  0  0  0  0  0  0  0
   30.2200   26.6300   33.1100 C   0  0  0  0  0  0  0  0  0  0  0  0
   29.2400   26.6600   34.1000 C   0  0  0  0  0  0  0  0  0  0  0  0
   27.9300   26.2600   33.8100 C   0  0  0  0  0  0  0  0  0  0  0  0
   27.5200   25.7100   32.6100 N   0  0  0  0  0  0  0  0  0  0  0  0
   31.1734   28.0687   37.0017 C   0  0  0  0  0  0  0  0  0  0  0  0
   31.2179   27.1568   38.0770 C   0  0  0  0  0  0  0  0  0  0  0  0
   31.5529   27.6348   39.3388 C   0  0  0  0  0  0  0  0  0  0  0  0
   31.6833   26.8837   40.6342 C   0  0  0  0  0  0  0  0  0  0  0  0
   32.0525   27.9329   41.5941 N   0  0  0  0  0  0  0  0  0  0  0  0
   32.1511   29.1750   40.9007 C   0  0  0  0  0  0  0  0  0  0  0  0
   32.4822   30.2693   41.4289 O   0  0  0  0  0  0  0  0  0  0  0  0
   31.8323   28.9642   39.5164 C   0  0  0  0  0  0  0  0  0  0  0  0
   31.7919   29.8615   38.5029 N   0  0  0  0  0  0  0  0  0  0  0  0
   31.4597   29.4457   37.2436 C   0  0  0  0  0  0  0  0  0  0  0  0
   31.4131   30.4632   36.1419 C   0  0  0  0  0  0  0  0  0  0  0  0
   32.3615   27.7107   43.0041 C   0  0  0  0  0  0  0  0  0  0  0  0
   31.2781   28.3165   43.8880 C   0  0  0  0  0  0  0  0  0  0  0  0
   23.6981   25.8078   35.4227 H   0  0  0  0  0  0  0  0  0  0  0  0
   24.8908   26.7905   36.3050 H   0  0  0  0  0  0  0  0  0  0  0  0
   32.8549   27.8772   34.9136 H   0  0  0  0  0  0  0  0  0  0  0  0
   32.2645   27.1242   32.6241 H   0  0  0  0  0  0  0  0  0  0  0  0
   30.0102   26.3029   32.1005 H   0  0  0  0  0  0  0  0  0  0  0  0
   26.6941   26.1028   32.1054 H   0  0  0  0  0  0  0  0  0  0  0  0
   28.1316   25.0435   32.0893 H   0  0  0  0  0  0  0  0  0  0  0  0
   31.0052   26.1049   37.9299 H   0  0  0  0  0  0  0  0  0  0  0  0
   30.7150   26.4211   40.9203 H   0  0  0  0  0  0  0  0  0  0  0  0
   32.4891   26.1225   40.5632 H   0  0  0  0  0  0  0  0  0  0  0  0
   32.2900   30.3345   35.4744 H   0  0  0  0  0  0  0  0  0  0  0  0
   30.4782   30.3508   35.5532 H   0  0  0  0  0  0  0  0  0  0  0  0
   31.4366   31.4910   36.5622 H   0  0  0  0  0  0  0  0  0  0  0  0
   33.3460   28.1649   43.2467 H   0  0  0  0  0  0  0  0  0  0  0  0
   32.4230   26.6197   43.2075 H   0  0  0  0  0  0  0  0  0  0  0  0
   31.2286   29.4158   43.7415 H   0  0  0  0  0  0  0  0  0  0  0  0
   30.2916   27.8700   43.6403 H   0  0  0  0  0  0  0  0  0  0  0  0
   31.5080   28.1095   44.9544 H   0  0  0  0  0  0  0  0  0  0  0  0
  1  2  1  0
  2  3  2  0
  2  4  1  0
  4  5  2  0
  5  6  1  0
  6  7  2  0
  7  8  1  0
  8  9  2  0
  9 10  1  0
 10 11  2  0
 11 12  1  0
 12 13  2  0
 13 14  1  0
  8 15  1  0
 15 16  2  0
 16 17  1  0
 17 18  1  0
 18 19  1  0
 19 20  1  0
 20 21  2  0
 20 22  1  0
 22 23  1  0
 23 24  2  0
 24 25  1  0
 19 26  1  0
 26 27  1  0
 13  4  1  0
 24 15  1  0
 12  7  1  0
 22 17  2  0
  1 28  1  0
  1 29  1  0
  9 30  1  0
 10 31  1  0
 11 32  1  0
 14 33  1  0
 14 34  1  0
 16 35  1  0
 18 36  1  0
 18 37  1  0
 25 38  1  0
 25 39  1  0
 25 40  1  0
 26 41  1  0
 26 42  1  0
 27 43  1  0
 27 44  1  0
 27 45  1  0
M  END
$$$$
confid_1
     RDKit          3D

 45 48  0  0  0  0  0  0  0  0999 V2000
   24.6900   26.1200   35.5300 N   0  0  0  0  0  0  0  0  0  0  0  0
   25.6600   25.6700   34.6600 C   0  0  0  0  0  0  0  0  0  0  0  0
   25.2400   25.0100   33.7200 O   0  0  0  0  0  0  0  0  0  0  0  0
   27.0300   26.2200   34.8800 C   0  0  0  0  0  0  0  0  0  0  0  0
   27.3500   26.7300   36.0700 N   0  0  0  0  0  0  0  0  0  0  0  0
   28.5700   27.1800   36.3300 N   0  0  0  0  0  0  0  0  0  0  0  0
   29.5300   27.1100   35.3900 C   0  0  0  0  0  0  0  0  0  0  0  0
   30.8300   27.5700   35.6500 C   0  0  0  0  0  0  0  0  0  0  0  0
   31.8500   27.5400   34.6900 C   0  0  0  0  0  0  0  0  0  0  0  0
   31.5100   27.1200   33.4000 C   0  0  0  0  0  0  0  0  0  0  0  0
   30.2200   26.6300   33.1100 C   0  0  0  0  0  0  0  0  0  0  0  0
   29.2400   26.6600   34.1000 C   0  0  0  0  0  0  0  0  0  0  0  0
   27.9300   26.2600   33.8100 C   0  0  0  0  0  0  0  0  0  0  0  0
   27.5200   25.7100   32.6100 N   0  0  0  0  0  0  0  0  0  0  0  0
   31.1744   28.0749   36.9966 C   0  0  0  0  0  0  0  0  0  0  0  0
   31.3051   29.4647   37.1915 C   0  0  0  0  0  0  0  0  0  0  0  0
   31.6179   29.9282   38.4646 C   0  0  0  0  0  0  0  0  0  0  0  0
   31.8118   31.3412   38.9390 C   0  0  0  0  0  0  0  0  0  0  0  0
   32.1070   31.1771   40.3688 N   0  0  0  0  0  0  0  0  0  0  0  0
   32.1072   29.7857   40.6807 C   0  0  0  0  0  0  0  0  0  0  0  0
   32.3592   29.3031   41.8164 O   0  0  0  0  0  0  0  0  0  0  0  0
   31.7961   29.0404   39.4932 C   0  0  0  0  0  0  0  0  0  0  0  0
   31.6880   27.7003   39.3294 N   0  0  0  0  0  0  0  0  0  0  0  0
   31.3857   27.1919   38.0968 C   0  0  0  0  0  0  0  0  0  0  0  0
   31.2780   25.7037   37.9395 C   0  0  0  0  0  0  0  0  0  0  0  0
   32.4409   32.2621   41.2877 C   0  0  0  0  0  0  0  0  0  0  0  0
   31.3208   32.4651   42.3007 C   0  0  0  0  0  0  0  0  0  0  0  0
   23.6981   25.8079   35.4227 H   0  0  0  0  0  0  0  0  0  0  0  0
   24.8908   26.7904   36.3051 H   0  0  0  0  0  0  0  0  0  0  0  0
   32.8528   27.8840   34.9129 H   0  0  0  0  0  0  0  0  0  0  0  0
   32.2642   27.1254   32.6237 H   0  0  0  0  0  0  0  0  0  0  0  0
   30.0101   26.3031   32.1004 H   0  0  0  0  0  0  0  0  0  0  0  0
   26.6941   26.1028   32.1054 H   0  0  0  0  0  0  0  0  0  0  0  0
   28.1316   25.0435   32.0893 H   0  0  0  0  0  0  0  0  0  0  0  0
   31.1594   30.1619   36.3755 H   0  0  0  0  0  0  0  0  0  0  0  0
   32.6719   31.8122   38.4173 H   0  0  0  0  0  0  0  0  0  0  0  0
   30.8826   31.9338   38.8016 H   0  0  0  0  0  0  0  0  0  0  0  0
   31.6579   25.1887   38.8472 H   0  0  0  0  0  0  0  0  0  0  0  0
   30.2169   25.4164   37.7889 H   0  0  0  0  0  0  0  0  0  0  0  0
   31.8802   25.3654   37.0701 H   0  0  0  0  0  0  0  0  0  0  0  0
   32.5857   33.2054   40.7179 H   0  0  0  0  0  0  0  0  0  0  0  0
   33.3901   32.0262   41.8149 H   0  0  0  0  0  0  0  0  0  0  0  0
   31.5725   33.3148   42.9696 H   0  0  0  0  0  0  0  0  0  0  0  0
   30.3691   32.6920   41.7747 H   0  0  0  0  0  0  0  0  0  0  0  0
   31.1878   31.5527   42.9190 H   0  0  0  0  0  0  0  0  0  0  0  0
  1  2  1  0
  2  3  2  0
  2  4  1  0
  4  5  2  0
  5  6  1  0
  6  7  2  0
  7  8  1  0
  8  9  2  0
  9 10  1  0
 10 11  2  0
 11 12  1  0
 12 13  2  0
 13 14  1  0
  8 15  1  0
 15 16  2  0
 16 17  1  0
 17 18  1  0
 18 19  1  0
 19 20  1  0
 20 21  2  0
 20 22  1  0
 22 23  1  0
 23 24  2  0
 24 25  1  0
 19 26  1  0
 26 27  1  0
 13  4  1  0
 24 15  1  0
 12  7  1  0
 22 17  2  0
  1 28  1  0
  1 29  1  0
  9 30  1  0
 10 31  1  0
 11 32  1  0
 14 33  1  0
 14 34  1  0
 16 35  1  0
 18 36  1  0
 18 37  1  0
 25 38  1  0
 25 39  1  0
 25 40  1  0
 26 41  1  0
 26 42  1  0
 27 43  1  0
 27 44  1  0
 27 45  1  0
M  END
$$$$
confid_2
     RDKit          3D

 45 48  0  0  0  0  0  0  0  0999 V2000
   24.6900   26.1200   35.5300 N   0  0  0  0  0  0  0  0  0  0  0  0
   25.6600   25.6700   34.6600 C   0  0  0  0  0  0  0  0  0  0  0  0
   25.2400   25.0100   33.7200 O   0  0  0  0  0  0  0  0  0  0  0  0
   27.0300   26.2200   34.8800 C   0  0  0  0  0  0  0  0  0  0  0  0
   27.3500   26.7300   36.0700 N   0  0  0  0  0  0  0  0  0  0  0  0
   28.5700   27.1800   36.3300 N   0  0  0  0  0  0  0  0  0  0  0  0
   29.5300   27.1100   35.3900 C   0  0  0  0  0  0  0  0  0  0  0  0
   30.8300   27.5700   35.6500 C   0  0  0  0  0  0  0  0  0  0  0  0
   31.8500   27.5400   34.6900 C   0  0  0  0  0  0  0  0  0  0  0  0
   31.5100   27.1200   33.4000 C   0  0  0  0  0  0  0  0  0  0  0  0
   30.2200   26.6300   33.1100 C   0  0  0  0  0  0  0  0  0  0  0  0
   29.2400   26.6600   34.1000 C   0  0  0  0  0  0  0  0  0  0  0  0
   27.9300   26.2600   33.8100 C   0  0  0  0  0  0  0  0  0  0  0  0
   27.5200   25.7100   32.6100 N   0  0  0  0  0  0  0  0  0  0  0  0
   31.1736   28.0684   37.0018 C   0  0  0  0  0  0  0  0  0  0  0  0
   31.2170   27.1566   38.0772 C   0  0  0  0  0  0  0  0  0  0  0  0
   31.5535   27.6342   39.3387 C   0  0  0  0  0  0  0  0  0  0  0  0
   31.6687   26.8857   40.6371 C   0  0  0  0  0  0  0  0  0  0  0  0
   32.0648   27.9299   41.5917 N   0  0  0  0  0  0  0  0  0  0  0  0
   32.1447   29.1755   40.9022 C   0  0  0  0  0  0  0  0  0  0  0  0
   32.4276   30.2786   41.4402 O   0  0  0  0  0  0  0  0  0  0  0  0
   31.8327   28.9636   39.5165 C   0  0  0  0  0  0  0  0  0  0  0  0
   31.7900   29.8614   38.5035 N   0  0  0  0  0  0  0  0  0  0  0  0
   31.4592   29.4455   37.2439 C   0  0  0  0  0  0  0  0  0  0  0  0
   31.4116   30.4632   36.1425 C   0  0  0  0  0  0  0  0  0  0  0  0
   32.2468   27.7309   43.0271 C   0  0  0  0  0  0  0  0  0  0  0  0
   33.7174   27.8699   43.4013 C   0  0  0  0  0  0  0  0  0  0  0  0
   24.8908   26.7904   36.3051 H   0  0  0  0  0  0  0  0  0  0  0  0
   23.6981   25.8078   35.4227 H   0  0  0  0  0  0  0  0  0  0  0  0
   32.8552   27.8760   34.9139 H   0  0  0  0  0  0  0  0  0  0  0  0
   32.2660   27.1187   32.6255 H   0  0  0  0  0  0  0  0  0  0  0  0
   30.0115   26.2780   32.1080 H   0  0  0  0  0  0  0  0  0  0  0  0
   27.3415   24.6832   32.5416 H   0  0  0  0  0  0  0  0  0  0  0  0
   27.6979   26.2229   31.7183 H   0  0  0  0  0  0  0  0  0  0  0  0
   31.0010   26.1054   37.9306 H   0  0  0  0  0  0  0  0  0  0  0  0
   32.4540   26.1031   40.5722 H   0  0  0  0  0  0  0  0  0  0  0  0
   30.6877   26.4507   40.9236 H   0  0  0  0  0  0  0  0  0  0  0  0
   30.4759   30.3514   35.5551 H   0  0  0  0  0  0  0  0  0  0  0  0
   31.4363   31.4909   36.5629 H   0  0  0  0  0  0  0  0  0  0  0  0
   32.2875   30.3341   35.4737 H   0  0  0  0  0  0  0  0  0  0  0  0
   31.6414   28.4755   43.5871 H   0  0  0  0  0  0  0  0  0  0  0  0
   31.8978   26.7148   43.3124 H   0  0  0  0  0  0  0  0  0  0  0  0
   34.3251   27.1322   42.8354 H   0  0  0  0  0  0  0  0  0  0  0  0
   34.0799   28.8941   43.1726 H   0  0  0  0  0  0  0  0  0  0  0  0
   33.8449   27.6816   44.4881 H   0  0  0  0  0  0  0  0  0  0  0  0
  1  2  1  0
  2  3  2  0
  2  4  1  0
  4  5  2  0
  5  6  1  0
  6  7  2  0
  7  8  1  0
  8  9  2  0
  9 10  1  0
 10 11  2  0
 11 12  1  0
 12 13  2  0
 13 14  1  0
  8 15  1  0
 15 16  2  0
 16 17  1  0
 17 18  1  0
 18 19  1  0
 19 20  1  0
 20 21  2  0
 20 22  1  0
 22 23  1  0
 23 24  2  0
 24 25  1  0
 19 26  1  0
 26 27  1  0
 13  4  1  0
 24 15  1  0
 12  7  1  0
 22 17  2  0
  1 28  1  0
  1 29  1  0
  9 30  1  0
 10 31  1  0
 11 32  1  0
 14 33  1  0
 14 34  1  0
 16 35  1  0
 18 36  1  0
 18 37  1  0
 25 38  1  0
 25 39  1  0
 25 40  1  0
 26 41  1  0
 26 42  1  0
 27 43  1  0
 27 44  1  0
 27 45  1  0
M  END
$$$$
confid_3
     RDKit          3D

 45 48  0  0  0  0  0  0  0  0999 V2000
   24.6900   26.1200   35.5300 N   0  0  0  0  0  0  0  0  0  0  0  0
   25.6600   25.6700   34.6600 C   0  0  0  0  0  0  0  0  0  0  0  0
   25.2400   25.0100   33.7200 O   0  0  0  0  0  0  0  0  0  0  0  0
   27.0300   26.2200   34.8800 C   0  0  0  0  0  0  0  0  0  0  0  0
   27.3500   26.7300   36.0700 N   0  0  0  0  0  0  0  0  0  0  0  0
   28.5700   27.1800   36.3300 N   0  0  0  0  0  0  0  0  0  0  0  0
   29.5300   27.1100   35.3900 C   0  0  0  0  0  0  0  0  0  0  0  0
   30.8300   27.5700   35.6500 C   0  0  0  0  0  0  0  0  0  0  0  0
   31.8500   27.5400   34.6900 C   0  0  0  0  0  0  0  0  0  0  0  0
   31.5100   27.1200   33.4000 C   0  0  0  0  0  0  0  0  0  0  0  0
   30.2200   26.6300   33.1100 C   0  0  0  0  0  0  0  0  0  0  0  0
   29.2400   26.6600   34.1000 C   0  0  0  0  0  0  0  0  0  0  0  0
   27.9300   26.2600   33.8100 C   0  0  0  0  0  0  0  0  0  0  0  0
   27.5200   25.7100   32.6100 N   0  0  0  0  0  0  0  0  0  0  0  0
   31.1659   28.0921   36.9941 C   0  0  0  0  0  0  0  0  0  0  0  0
   30.6476   29.3423   37.3908 C   0  0  0  0  0  0  0  0  0  0  0  0
   30.9788   29.8278   38.6507 C   0  0  0  0  0  0  0  0  0  0  0  0
   30.5646   31.1127   39.3116 C   0  0  0  0  0  0  0  0  0  0  0  0
   31.2431   31.0538   40.6134 N   0  0  0  0  0  0  0  0  0  0  0  0
   31.9641   29.8266   40.6999 C   0  0  0  0  0  0  0  0  0  0  0  0
   32.6274   29.4513   41.7026 O   0  0  0  0  0  0  0  0  0  0  0  0
   31.7905   29.0952   39.4764 C   0  0  0  0  0  0  0  0  0  0  0  0
   32.2944   27.8887   39.1234 N   0  0  0  0  0  0  0  0  0  0  0  0
   31.9956   27.3629   37.8973 C   0  0  0  0  0  0  0  0  0  0  0  0
   32.5614   26.0215   37.5348 C   0  0  0  0  0  0  0  0  0  0  0  0
   31.1122   32.0484   41.6748 C   0  0  0  0  0  0  0  0  0  0  0  0
   32.4222   32.8046   41.8598 C   0  0  0  0  0  0  0  0  0  0  0  0
   24.8908   26.7905   36.3050 H   0  0  0  0  0  0  0  0  0  0  0  0
   23.6981   25.8077   35.4228 H   0  0  0  0  0  0  0  0  0  0  0  0
   32.8508   27.8919   34.9096 H   0  0  0  0  0  0  0  0  0  0  0  0
   32.2651   27.1221   32.6246 H   0  0  0  0  0  0  0  0  0  0  0  0
   30.0113   26.2787   32.1078 H   0  0  0  0  0  0  0  0  0  0  0  0
   27.3415   24.6831   32.5416 H   0  0  0  0  0  0  0  0  0  0  0  0
   27.6978   26.2229   31.7183 H   0  0  0  0  0  0  0  0  0  0  0  0
   30.0101   29.9198   36.7325 H   0  0  0  0  0  0  0  0  0  0  0  0
   29.4629   31.1415   39.4497 H   0  0  0  0  0  0  0  0  0  0  0  0
   30.9215   31.9882   38.7289 H   0  0  0  0  0  0  0  0  0  0  0  0
   32.9927   25.5272   38.4310 H   0  0  0  0  0  0  0  0  0  0  0  0
   33.3640   26.1444   36.7785 H   0  0  0  0  0  0  0  0  0  0  0  0
   31.7638   25.3654   37.1267 H   0  0  0  0  0  0  0  0  0  0  0  0
   30.8275   31.5463   42.6242 H   0  0  0  0  0  0  0  0  0  0  0  0
   30.3122   32.7742   41.4127 H   0  0  0  0  0  0  0  0  0  0  0  0
   33.2298   32.1094   42.1716 H   0  0  0  0  0  0  0  0  0  0  0  0
   32.2974   33.5800   42.6446 H   0  0  0  0  0  0  0  0  0  0  0  0
   32.7130   33.2996   40.9090 H   0  0  0  0  0  0  0  0  0  0  0  0
  1  2  1  0
  2  3  2  0
  2  4  1  0
  4  5  2  0
  5  6  1  0
  6  7  2  0
  7  8  1  0
  8  9  2  0
  9 10  1  0
 10 11  2  0
 11 12  1  0
 12 13  2  0
 13 14  1  0
  8 15  1  0
 15 16  2  0
 16 17  1  0
 17 18  1  0
 18 19  1  0
 19 20  1  0
 20 21  2  0
 20 22  1  0
 22 23  1  0
 23 24  2  0
 24 25  1  0
 19 26  1  0
 26 27  1  0
 13  4  1  0
 24 15  1  0
 12  7  1  0
 22 17  2  0
  1 28  1  0
  1 29  1  0
  9 30  1  0
 10 31  1  0
 11 32  1  0
 14 33  1  0
 14 34  1  0
 16 35  1  0
 18 36  1  0
 18 37  1  0
 25 38  1  0
 25 39  1  0
 25 40  1  0
 26 41  1  0
 26 42  1  0
 27 43  1  0
 27 44  1  0
 27 45  1  0
M  END
$$$$
confid_4
     RDKit          3D

 45 48  0  0  0  0  0  0  0  0999 V2000
   24.6900   26.1200   35.5300 N   0  0  0  0  0  0  0  0  0  0  0  0
   25.6600   25.6700   34.6600 C   0  0  0  0  0  0  0  0  0  0  0  0
   25.2400   25.0100   33.7200 O   0  0  0  0  0  0  0  0  0  0  0  0
   27.0300   26.2200   34.8800 C   0  0  0  0  0  0  0  0  0  0  0  0
   27.3500   26.7300   36.0700 N   0  0  0  0  0  0  0  0  0  0  0  0
   28.5700   27.1800   36.3300 N   0  0  0  0  0  0  0  0  0  0  0  0
   29.5300   27.1100   35.3900 C   0  0  0  0  0  0  0  0  0  0  0  0
   30.8300   27.5700   35.6500 C   0  0  0  0  0  0  0  0  0  0  0  0
   31.8500   27.5400   34.6900 C   0  0  0  0  0  0  0  0  0  0  0  0
   31.5100   27.1200   33.4000 C   0  0  0  0  0  0  0  0  0  0  0  0
   30.2200   26.6300   33.1100 C   0  0  0  0  0  0  0  0  0  0  0  0
   29.2400   26.6600   34.1000 C   0  0  0  0  0  0  0  0  0  0  0  0
   27.9300   26.2600   33.8100 C   0  0  0  0  0  0  0  0  0  0  0  0
   27.5200   25.7100   32.6100 N   0  0  0  0  0  0  0  0  0  0  0  0
   31.1696   28.0865   36.9927 C   0  0  0  0  0  0  0  0  0  0  0  0
   31.8605   27.2507   37.8930 C   0  0  0  0  0  0  0  0  0  0  0  0
   32.1640   27.7466   39.1561 C   0  0  0  0  0  0  0  0  0  0  0  0
   32.8839   27.0746   40.2917 C   0  0  0  0  0  0  0  0  0  0  0  0
   32.8784   28.0989   41.3449 N   0  0  0  0  0  0  0  0  0  0  0  0
   32.2323   29.2677   40.8452 C   0  0  0  0  0  0  0  0  0  0  0  0
   32.0905   30.3416   41.4877 O   0  0  0  0  0  0  0  0  0  0  0  0
   31.7959   29.0214   39.4994 C   0  0  0  0  0  0  0  0  0  0  0  0
   31.1402   29.8471   38.6491 N   0  0  0  0  0  0  0  0  0  0  0  0
   30.8202   29.4094   37.3941 C   0  0  0  0  0  0  0  0  0  0  0  0
   30.0984   30.3427   36.4675 C   0  0  0  0  0  0  0  0  0  0  0  0
   33.5193   27.9650   42.6504 C   0  0  0  0  0  0  0  0  0  0  0  0
   32.4701   27.8845   43.7525 C   0  0  0  0  0  0  0  0  0  0  0  0
   24.8908   26.7907   36.3049 H   0  0  0  0  0  0  0  0  0  0  0  0
   23.6981   25.8078   35.4228 H   0  0  0  0  0  0  0  0  0  0  0  0
   32.8516   27.8884   34.9118 H   0  0  0  0  0  0  0  0  0  0  0  0
   32.2638   27.1266   32.6234 H   0  0  0  0  0  0  0  0  0  0  0  0
   30.0100   26.3035   32.1004 H   0  0  0  0  0  0  0  0  0  0  0  0
   26.6941   26.1028   32.1054 H   0  0  0  0  0  0  0  0  0  0  0  0
   28.1317   25.0436   32.0892 H   0  0  0  0  0  0  0  0  0  0  0  0
   32.1461   26.2431   37.6168 H   0  0  0  0  0  0  0  0  0  0  0  0
   32.3324   26.1712   40.6280 H   0  0  0  0  0  0  0  0  0  0  0  0
   33.9260   26.8257   39.9986 H   0  0  0  0  0  0  0  0  0  0  0  0
   29.0645   29.9784   36.2954 H   0  0  0  0  0  0  0  0  0  0  0  0
   30.6341   30.4067   35.4971 H   0  0  0  0  0  0  0  0  0  0  0  0
   30.0456   31.3621   36.9052 H   0  0  0  0  0  0  0  0  0  0  0  0
   34.1895   28.8332   42.8283 H   0  0  0  0  0  0  0  0  0  0  0  0
   34.1359   27.0404   42.6729 H   0  0  0  0  0  0  0  0  0  0  0  0
   31.7936   27.0223   43.5711 H   0  0  0  0  0  0  0  0  0  0  0  0
   31.8707   28.8184   43.7855 H   0  0  0  0  0  0  0  0  0  0  0  0
   32.9703   27.7478   44.7343 H   0  0  0  0  0  0  0  0  0  0  0  0
  1  2  1  0
  2  3  2  0
  2  4  1  0
  4  5  2  0
  5  6  1  0
  6  7  2  0
  7  8  1  0
  8  9  2  0
  9 10  1  0
 10 11  2  0
 11 12  1  0
 12 13  2  0
 13 14  1  0
  8 15  1  0
 15 16  2  0
 16 17  1  0
 17 18  1  0
 18 19  1  0
 19 20  1  0
 20 21  2  0
 20 22  1  0
 22 23  1  0
 23 24  2  0
 24 25  1  0
 19 26  1  0
 26 27  1  0
 13  4  1  0
 24 15  1  0
 12  7  1  0
 22 17  2  0
  1 28  1  0
  1 29  1  0
  9 30  1  0
 10 31  1  0
 11 32  1  0
 14 33  1  0
 14 34  1  0
 16 35  1  0
 18 36  1  0
 18 37  1  0
 25 38  1  0
 25 39  1  0
 25 40  1  0
 26 41  1  0
 26 42  1  0
 27 43  1  0
 27 44  1  0
 27 45  1  0
M  END
$$$$
confid_5
     RDKit          3D

 45 48  0  0  0  0  0  0  0  0999 V2000
   24.6900   26.1200   35.5300 N   0  0  0  0  0  0  0  0  0  0  0  0
   25.6600   25.6700   34.6600 C   0  0  0  0  0  0  0  0  0  0  0  0
   25.2400   25.0100   33.7200 O   0  0  0  0  0  0  0  0  0  0  0  0
   27.0300   26.2200   34.8800 C   0  0  0  0  0  0  0  0  0  0  0  0
   27.3500   26.7300   36.0700 N   0  0  0  0  0  0  0  0  0  0  0  0
   28.5700   27.1800   36.3300 N   0  0  0  0  0  0  0  0  0  0  0  0
   29.5300   27.1100   35.3900 C   0  0  0  0  0  0  0  0  0  0  0  0
   30.8300   27.5700   35.6500 C   0  0  0  0  0  0  0  0  0  0  0  0
   31.8500   27.5400   34.6900 C   0  0  0  0  0  0  0  0  0  0  0  0
   31.5100   27.1200   33.4000 C   0  0  0  0  0  0  0  0  0  0  0  0
   30.2200   26.6300   33.1100 C   0  0  0  0  0  0  0  0  0  0  0  0
   29.2400   26.6600   34.1000 C   0  0  0  0  0  0  0  0  0  0  0  0
   27.9300   26.2600   33.8100 C   0  0  0  0  0  0  0  0  0  0  0  0
   27.5200   25.7100   32.6100 N   0  0  0  0  0  0  0  0  0  0  0  0
   31.1658   28.0922   36.9941 C   0  0  0  0  0  0  0  0  0  0  0  0
   30.6478   29.3427   37.3904 C   0  0  0  0  0  0  0  0  0  0  0  0
   30.9778   29.8277   38.6508 C   0  0  0  0  0  0  0  0  0  0  0  0
   30.5757   31.1196   39.3056 C   0  0  0  0  0  0  0  0  0  0  0  0
   31.2321   31.0485   40.6180 N   0  0  0  0  0  0  0  0  0  0  0  0
   31.9694   29.8305   40.6970 C   0  0  0  0  0  0  0  0  0  0  0  0
   32.6734   29.4782   41.6801 O   0  0  0  0  0  0  0  0  0  0  0  0
   31.7902   29.0957   39.4762 C   0  0  0  0  0  0  0  0  0  0  0  0
   32.2967   27.8905   39.1223 N   0  0  0  0  0  0  0  0  0  0  0  0
   31.9967   27.3638   37.8969 C   0  0  0  0  0  0  0  0  0  0  0  0
   32.5640   26.0231   37.5340 C   0  0  0  0  0  0  0  0  0  0  0  0
   31.2067   32.1028   41.6284 C   0  0  0  0  0  0  0  0  0  0  0  0
   30.3918   31.6610   42.8379 C   0  0  0  0  0  0  0  0  0  0  0  0
   23.6981   25.8077   35.4228 H   0  0  0  0  0  0  0  0  0  0  0  0
   24.8908   26.7905   36.3050 H   0  0  0  0  0  0  0  0  0  0  0  0
   32.8507   27.8920   34.9096 H   0  0  0  0  0  0  0  0  0  0  0  0
   32.2651   27.1221   32.6246 H   0  0  0  0  0  0  0  0  0  0  0  0
   30.0113   26.2787   32.1078 H   0  0  0  0  0  0  0  0  0  0  0  0
   27.6978   26.2229   31.7183 H   0  0  0  0  0  0  0  0  0  0  0  0
   27.3415   24.6831   32.5416 H   0  0  0  0  0  0  0  0  0  0  0  0
   30.0127   29.9213   36.7309 H   0  0  0  0  0  0  0  0  0  0  0  0
   30.9605   31.9856   38.7263 H   0  0  0  0  0  0  0  0  0  0  0  0
   29.4730   31.1729   39.4270 H   0  0  0  0  0  0  0  0  0  0  0  0
   31.7674   25.3667   37.1245 H   0  0  0  0  0  0  0  0  0  0  0  0
   33.3674   26.1473   36.7788 H   0  0  0  0  0  0  0  0  0  0  0  0
   32.9946   25.5285   38.4304 H   0  0  0  0  0  0  0  0  0  0  0  0
   32.2449   32.3467   41.9399 H   0  0  0  0  0  0  0  0  0  0  0  0
   30.7477   33.0207   41.2016 H   0  0  0  0  0  0  0  0  0  0  0  0
   30.3520   32.4845   43.5816 H   0  0  0  0  0  0  0  0  0  0  0  0
   29.3560   31.4079   42.5266 H   0  0  0  0  0  0  0  0  0  0  0  0
   30.8571   30.7730   43.3149 H   0  0  0  0  0  0  0  0  0  0  0  0
  1  2  1  0
  2  3  2  0
  2  4  1  0
  4  5  2  0
  5  6  1  0
  6  7  2  0
  7  8  1  0
  8  9  2  0
  9 10  1  0
 10 11  2  0
 11 12  1  0
 12 13  2  0
 13 14  1  0
  8 15  1  0
 15 16  2  0
 16 17  1  0
 17 18  1  0
 18 19  1  0
 19 20  1  0
 20 21  2  0
 20 22  1  0
 22 23  1  0
 23 24  2  0
 24 25  1  0
 19 26  1  0
 26 27  1  0
 13  4  1  0
 24 15  1  0
 12  7  1  0
 22 17  2  0
  1 28  1  0
  1 29  1  0
  9 30  1  0
 10 31  1  0
 11 32  1  0
 14 33  1  0
 14 34  1  0
 16 35  1  0
 18 36  1  0
 18 37  1  0
 25 38  1  0
 25 39  1  0
 25 40  1  0
 26 41  1  0
 26 42  1  0
 27 43  1  0
 27 44  1  0
 27 45  1  0
M  END
$$$$
confid_6
     RDKit          3D

 45 48  0  0  0  0  0  0  0  0999 V2000
   24.6900   26.1200   35.5300 N   0  0  0  0  0  0  0  0  0  0  0  0
   25.6600   25.6700   34.6600 C   0  0  0  0  0  0  0  0  0  0  0  0
   25.2400   25.0100   33.7200 O   0  0  0  0  0  0  0  0  0  0  0  0
   27.0300   26.2200   34.8800 C   0  0  0  0  0  0  0  0  0  0  0  0
   27.3500   26.7300   36.0700 N   0  0  0  0  0  0  0  0  0  0  0  0
   28.5700   27.1800   36.3300 N   0  0  0  0  0  0  0  0  0  0  0  0
   29.5300   27.1100   35.3900 C   0  0  0  0  0  0  0  0  0  0  0  0
   30.8300   27.5700   35.6500 C   0  0  0  0  0  0  0  0  0  0  0  0
   31.8500   27.5400   34.6900 C   0  0  0  0  0  0  0  0  0  0  0  0
   31.5100   27.1200   33.4000 C   0  0  0  0  0  0  0  0  0  0  0  0
   30.2200   26.6300   33.1100 C   0  0  0  0  0  0  0  0  0  0  0  0
   29.2400   26.6600   34.1000 C   0  0  0  0  0  0  0  0  0  0  0  0
   27.9300   26.2600   33.8100 C   0  0  0  0  0  0  0  0  0  0  0  0
   27.5200   25.7100   32.6100 N   0  0  0  0  0  0  0  0  0  0  0  0
   31.1744   28.0749   36.9966 C   0  0  0  0  0  0  0  0  0  0  0  0
   31.3033   29.4649   37.1918 C   0  0  0  0  0  0  0  0  0  0  0  0
   31.6174   29.9283   38.4646 C   0  0  0  0  0  0  0  0  0  0  0  0
   31.7952   31.3423   38.9425 C   0  0  0  0  0  0  0  0  0  0  0  0
   32.1176   31.1767   40.3663 N   0  0  0  0  0  0  0  0  0  0  0  0
   32.0996   29.7863   40.6823 C   0  0  0  0  0  0  0  0  0  0  0  0
   32.3029   29.3065   41.8289 O   0  0  0  0  0  0  0  0  0  0  0  0
   31.7958   29.0406   39.4932 C   0  0  0  0  0  0  0  0  0  0  0  0
   31.6860   27.7006   39.3298 N   0  0  0  0  0  0  0  0  0  0  0  0
   31.3854   27.1920   38.0969 C   0  0  0  0  0  0  0  0  0  0  0  0
   31.2772   25.7038   37.9398 C   0  0  0  0  0  0  0  0  0  0  0  0
   32.3226   32.2690   41.3139 C   0  0  0  0  0  0  0  0  0  0  0  0
   33.7809   32.3264   41.7523 C   0  0  0  0  0  0  0  0  0  0  0  0
   24.8908   26.7904   36.3051 H   0  0  0  0  0  0  0  0  0  0  0  0
   23.6981   25.8078   35.4227 H   0  0  0  0  0  0  0  0  0  0  0  0
   32.8528   27.8840   34.9129 H   0  0  0  0  0  0  0  0  0  0  0  0
   32.2642   27.1254   32.6237 H   0  0  0  0  0  0  0  0  0  0  0  0
   30.0101   26.3031   32.1004 H   0  0  0  0  0  0  0  0  0  0  0  0
   26.6941   26.1028   32.1054 H   0  0  0  0  0  0  0  0  0  0  0  0
   28.1316   25.0435   32.0893 H   0  0  0  0  0  0  0  0  0  0  0  0
   31.1539   30.1622   36.3766 H   0  0  0  0  0  0  0  0  0  0  0  0
   32.6363   31.8351   38.4103 H   0  0  0  0  0  0  0  0  0  0  0  0
   30.8510   31.9149   38.8232 H   0  0  0  0  0  0  0  0  0  0  0  0
   31.8782   25.3653   37.0696 H   0  0  0  0  0  0  0  0  0  0  0  0
   30.2160   25.4167   37.7907 H   0  0  0  0  0  0  0  0  0  0  0  0
   31.6584   25.1888   38.8470 H   0  0  0  0  0  0  0  0  0  0  0  0
   32.0524   33.2358   40.8366 H   0  0  0  0  0  0  0  0  0  0  0  0
   31.6665   32.1238   42.1988 H   0  0  0  0  0  0  0  0  0  0  0  0
   33.9287   33.1820   42.4443 H   0  0  0  0  0  0  0  0  0  0  0  0
   34.0643   31.3905   42.2779 H   0  0  0  0  0  0  0  0  0  0  0  0
   34.4387   32.4623   40.8677 H   0  0  0  0  0  0  0  0  0  0  0  0
  1  2  1  0
  2  3  2  0
  2  4  1  0
  4  5  2  0
  5  6  1  0
  6  7  2  0
  7  8  1  0
  8  9  2  0
  9 10  1  0
 10 11  2  0
 11 12  1  0
 12 13  2  0
 13 14  1  0
  8 15  1  0
 15 16  2  0
 16 17  1  0
 17 18  1  0
 18 19  1  0
 19 20  1  0
 20 21  2  0
 20 22  1  0
 22 23  1  0
 23 24  2  0
 24 25  1  0
 19 26  1  0
 26 27  1  0
 13  4  1  0
 24 15  1  0
 12  7  1  0
 22 17  2  0
  1 28  1  0
  1 29  1  0
  9 30  1  0
 10 31  1  0
 11 32  1  0
 14 33  1  0
 14 34  1  0
 16 35  1  0
 18 36  1  0
 18 37  1  0
 25 38  1  0
 25 39  1  0
 25 40  1  0
 26 41  1  0
 26 42  1  0
 27 43  1  0
 27 44  1  0
 27 45  1  0
M  END
$$$$
confid_7
     RDKit          3D

 45 48  0  0  0  0  0  0  0  0999 V2000
   24.6900   26.1200   35.5300 N   0  0  0  0  0  0  0  0  0  0  0  0
   25.6600   25.6700   34.6600 C   0  0  0  0  0  0  0  0  0  0  0  0
   25.2400   25.0100   33.7200 O   0  0  0  0  0  0  0  0  0  0  0  0
   27.0300   26.2200   34.8800 C   0  0  0  0  0  0  0  0  0  0  0  0
   27.3500   26.7300   36.0700 N   0  0  0  0  0  0  0  0  0  0  0  0
   28.5700   27.1800   36.3300 N   0  0  0  0  0  0  0  0  0  0  0  0
   29.5300   27.1100   35.3900 C   0  0  0  0  0  0  0  0  0  0  0  0
   30.8300   27.5700   35.6500 C   0  0  0  0  0  0  0  0  0  0  0  0
   31.8500   27.5400   34.6900 C   0  0  0  0  0  0  0  0  0  0  0  0
   31.5100   27.1200   33.4000 C   0  0  0  0  0  0  0  0  0  0  0  0
   30.2200   26.6300   33.1100 C   0  0  0  0  0  0  0  0  0  0  0  0
   29.2400   26.6600   34.1000 C   0  0  0  0  0  0  0  0  0  0  0  0
   27.9300   26.2600   33.8100 C   0  0  0  0  0  0  0  0  0  0  0  0
   27.5200   25.7100   32.6100 N   0  0  0  0  0  0  0  0  0  0  0  0
   31.1696   28.0865   36.9927 C   0  0  0  0  0  0  0  0  0  0  0  0
   31.8588   27.2500   37.8936 C   0  0  0  0  0  0  0  0  0  0  0  0
   32.1635   27.7462   39.1564 C   0  0  0  0  0  0  0  0  0  0  0  0
   32.8689   27.0685   40.2975 C   0  0  0  0  0  0  0  0  0  0  0  0
   32.8877   28.1023   41.3413 N   0  0  0  0  0  0  0  0  0  0  0  0
   32.2253   29.2647   40.8480 C   0  0  0  0  0  0  0  0  0  0  0  0
   32.0400   30.3215   41.5076 O   0  0  0  0  0  0  0  0  0  0  0  0
   31.7957   29.0211   39.4995 C   0  0  0  0  0  0  0  0  0  0  0  0
   31.1385   29.8463   38.6499 N   0  0  0  0  0  0  0  0  0  0  0  0
   30.8200   29.4092   37.3943 C   0  0  0  0  0  0  0  0  0  0  0  0
   30.0978   30.3425   36.4679 C   0  0  0  0  0  0  0  0  0  0  0  0
   33.4130   27.9229   42.6922 C   0  0  0  0  0  0  0  0  0  0  0  0
   34.6760   28.7530   42.8865 C   0  0  0  0  0  0  0  0  0  0  0  0
   23.6981   25.8078   35.4228 H   0  0  0  0  0  0  0  0  0  0  0  0
   24.8908   26.7907   36.3049 H   0  0  0  0  0  0  0  0  0  0  0  0
   32.8516   27.8884   34.9118 H   0  0  0  0  0  0  0  0  0  0  0  0
   32.2638   27.1266   32.6234 H   0  0  0  0  0  0  0  0  0  0  0  0
   30.0100   26.3035   32.1004 H   0  0  0  0  0  0  0  0  0  0  0  0
   26.6941   26.1028   32.1054 H   0  0  0  0  0  0  0  0  0  0  0  0
   28.1317   25.0436   32.0892 H   0  0  0  0  0  0  0  0  0  0  0  0
   32.1410   26.2411   37.6187 H   0  0  0  0  0  0  0  0  0  0  0  0
   32.2928   26.1827   40.6399 H   0  0  0  0  0  0  0  0  0  0  0  0
   33.9049   26.7899   40.0104 H   0  0  0  0  0  0  0  0  0  0  0  0
   30.0465   31.3623   36.9049 H   0  0  0  0  0  0  0  0  0  0  0  0
   29.0635   29.9789   36.2973 H   0  0  0  0  0  0  0  0  0  0  0  0
   30.6324   30.4054   35.4967 H   0  0  0  0  0  0  0  0  0  0  0  0
   33.6574   26.8517   42.8607 H   0  0  0  0  0  0  0  0  0  0  0  0
   32.6437   28.2241   43.4351 H   0  0  0  0  0  0  0  0  0  0  0  0
   35.4428   28.4593   42.1386 H   0  0  0  0  0  0  0  0  0  0  0  0
   35.0830   28.5796   43.9049 H   0  0  0  0  0  0  0  0  0  0  0  0
   34.4501   29.8340   42.7729 H   0  0  0  0  0  0  0  0  0  0  0  0
  1  2  1  0
  2  3  2  0
  2  4  1  0
  4  5  2  0
  5  6  1  0
  6  7  2  0
  7  8  1  0
  8  9  2  0
  9 10  1  0
 10 11  2  0
 11 12  1  0
 12 13  2  0
 13 14  1  0
  8 15  1  0
 15 16  2  0
 16 17  1  0
 17 18  1  0
 18 19  1  0
 19 20  1  0
 20 21  2  0
 20 22  1  0
 22 23  1  0
 23 24  2  0
 24 25  1  0
 19 26  1  0
 26 27  1  0
 13  4  1  0
 24 15  1  0
 12  7  1  0
 22 17  2  0
  1 28  1  0
  1 29  1  0
  9 30  1  0
 10 31  1  0
 11 32  1  0
 14 33  1  0
 14 34  1  0
 16 35  1  0
 18 36  1  0
 18 37  1  0
 25 38  1  0
 25 39  1  0
 25 40  1  0
 26 41  1  0
 26 42  1  0
 27 43  1  0
 27 44  1  0
 27 45  1  0
M  END
$$$$
