confid_0
     RDKit          3D

 47 50  0  0  0  0  0  0  0  0999 V2000
   24.4800   26.1000   36.1300 N   0  0  0  0  0  0  0  0  0  0  0  0
   25.2500   26.2500   34.9900 C   0  0  0  0  0  0  0  0  0  0  0  0
   24.7400   25.7600   33.9900 O   0  0  0  0  0  0  0  0  0  0  0  0
   26.5900   26.8900   34.9600 C   0  0  0  0  0  0  0  0  0  0  0  0
   27.0600   27.2400   36.1600 N   0  0  0  0  0  0  0  0  0  0  0  0
   28.3000   27.7100   36.2400 N   0  0  0  0  0  0  0  0  0  0  0  0
   29.0500   27.9600   35.1500 C   0  0  0  0  0  0  0  0  0  0  0  0
   30.3400   28.4900   35.2600 C   0  0  0  0  0  0  0  0  0  0  0  0
   31.1100   28.8200   34.1400 C   0  0  0  0  0  0  0  0  0  0  0  0
   30.5200   28.6700   32.8800 C   0  0  0  0  0  0  0  0  0  0  0  0
   29.2900   28.0200   32.7700 C   0  0  0  0  0  0  0  0  0  0  0  0
   28.5200   27.7100   33.8900 C   0  0  0  0  0  0  0  0  0  0  0  0
   27.2700   27.0800   33.7600 C   0  0  0  0  0  0  0  0  0  0  0  0
   26.7500   26.8800   32.4900 N   0  0  0  0  0  0  0  0  0  0  0  0
   23.5037   25.0581   36.3396 C   0  0  0  0  0  0  0  0  0  0  0  0
   23.4971   23.9509   35.5350 N   0  0  0  0  0  0  0  0  0  0  0  0
   22.5963   22.9592   35.7390 C   0  0  0  0  0  0  0  0  0  0  0  0
   22.4687   21.6944   34.9681 C   0  0  0  0  0  0  0  0  0  0  0  0
   21.3090   20.9620   35.6918 C   0  0  0  0  0  0  0  0  0  0  0  0
   20.8663   21.8621   36.7588 N   0  0  0  0  0  0  0  0  0  0  0  0
   21.6818   23.0207   36.7417 C   0  0  0  0  0  0  0  0  0  0  0  0
   21.6456   24.1099   37.6095 C   0  0  0  0  0  0  0  0  0  0  0  0
   22.5735   25.1574   37.4086 C   0  0  0  0  0  0  0  0  0  0  0  0
   22.5974   26.2934   38.2334 O   0  0  0  0  0  0  0  0  0  0  0  0
   21.7169   26.5104   39.3310 C   0  0  0  0  0  0  0  0  0  0  0  0
   19.7937   21.5653   37.7064 C   0  0  0  0  0  0  0  0  0  0  0  0
   18.5478   22.3771   37.3715 C   0  0  0  0  0  0  0  0  0  0  0  0
   24.6486   26.7740   36.9100 H   0  0  0  0  0  0  0  0  0  0  0  0
   30.7580   28.6629   36.2441 H   0  0  0  0  0  0  0  0  0  0  0  0
   32.0983   29.2479   34.2470 H   0  0  0  0  0  0  0  0  0  0  0  0
   31.0669   28.9543   31.9901 H   0  0  0  0  0  0  0  0  0  0  0  0
   28.9258   27.8587   31.7656 H   0  0  0  0  0  0  0  0  0  0  0  0
   25.7673   27.1503   32.2658 H   0  0  0  0  0  0  0  0  0  0  0  0
   27.2968   26.3786   31.7554 H   0  0  0  0  0  0  0  0  0  0  0  0
   22.2068   21.9134   33.9109 H   0  0  0  0  0  0  0  0  0  0  0  0
   23.4113   21.1093   35.0265 H   0  0  0  0  0  0  0  0  0  0  0  0
   20.4699   20.7662   34.9898 H   0  0  0  0  0  0  0  0  0  0  0  0
   21.6659   20.0047   36.1293 H   0  0  0  0  0  0  0  0  0  0  0  0
   20.9247   24.1388   38.4138 H   0  0  0  0  0  0  0  0  0  0  0  0
   20.6646   26.5366   38.9771 H   0  0  0  0  0  0  0  0  0  0  0  0
   21.8461   25.7085   40.0884 H   0  0  0  0  0  0  0  0  0  0  0  0
   21.9579   27.4855   39.8015 H   0  0  0  0  0  0  0  0  0  0  0  0
   19.5389   20.4845   37.6568 H   0  0  0  0  0  0  0  0  0  0  0  0
   20.1308   21.7896   38.7409 H   0  0  0  0  0  0  0  0  0  0  0  0
   18.7597   23.4643   37.4393 H   0  0  0  0  0  0  0  0  0  0  0  0
   18.2046   22.1378   36.3426 H   0  0  0  0  0  0  0  0  0  0  0  0
   17.7367   22.1271   38.0872 H   0  0  0  0  0  0  0  0  0  0  0  0
  1  2  1  0
  2  3  2  0
  2  4  1  0
  4  5  2  0
  5  6  1  0
  6  7  2  0
  7  8  1  0
  8  9  2  0
  9 10  1  0
 10 11  2  0
 11 12  1  0
 12 13  2  0
 13 14  1  0
  1 15  1  0
 15 16  2  0
 16 17  1  0
 17 18  1  0
 18 19  1  0
 19 20  1  0
 20 21  1  0
 21 22  1  0
 22 23  2  0
 23 24  1  0
 24 25  1  0
 20 26  1  0
 26 27  1  0
 13  4  1  0
 23 15  1  0
 12  7  1  0
 21 17  2  0
  1 28  1  0
  8 29  1  0
  9 30  1  0
 10 31  1  0
 11 32  1  0
 14 33  1  0
 14 34  1  0
 18 35  1  0
 18 36  1  0
 19 37  1  0
 19 38  1  0
 22 39  1  0
 25 40  1  0
 25 41  1  0
 25 42  1  0
 26 43  1  0
 26 44  1  0
 27 45  1  0
 27 46  1  0
 27 47  1  0
M  END
$$$$
confid_1
     RDKit          3D

 47 50  0  0  0  0  0  0  0  0999 V2000
   24.4800   26.1000   36.1300 N   0  0  0  0  0  0  0  0  0  0  0  0
   25.2500   26.2500   34.9900 C   0  0  0  0  0  0  0  0  0  0  0  0
   24.7400   25.7600   33.9900 O   0  0  0  0  0  0  0  0  0  0  0  0
   26.5900   26.8900   34.9600 C   0  0  0  0  0  0  0  0  0  0  0  0
   27.0600   27.2400   36.1600 N   0  0  0  0  0  0  0  0  0  0  0  0
   28.3000   27.7100   36.2400 N   0  0  0  0  0  0  0  0  0  0  0  0
   29.0500   27.9600   35.1500 C   0  0  0  0  0  0  0  0  0  0  0  0
   30.3400   28.4900   35.2600 C   0  0  0  0  0  0  0  0  0  0  0  0
   31.1100   28.8200   34.1400 C   0  0  0  0  0  0  0  0  0  0  0  0
   30.5200   28.6700   32.8800 C   0  0  0  0  0  0  0  0  0  0  0  0
   29.2900   28.0200   32.7700 C   0  0  0  0  0  0  0  0  0  0  0  0
   28.5200   27.7100   33.8900 C   0  0  0  0  0  0  0  0  0  0  0  0
   27.2700   27.0800   33.7600 C   0  0  0  0  0  0  0  0  0  0  0  0
   26.7500   26.8800   32.4900 N   0  0  0  0  0  0  0  0  0  0  0  0
   23.0408   25.9943   36.1419 C   0  0  0  0  0  0  0  0  0  0  0  0
   22.3189   26.3276   35.0279 N   0  0  0  0  0  0  0  0  0  0  0  0
   20.9660   26.2491   35.0375 C   0  0  0  0  0  0  0  0  0  0  0  0
   20.0425   26.5881   33.9229 C   0  0  0  0  0  0  0  0  0  0  0  0
   18.6428   26.3453   34.5452 C   0  0  0  0  0  0  0  0  0  0  0  0
   18.8844   25.8669   35.9080 N   0  0  0  0  0  0  0  0  0  0  0  0
   20.2819   25.8494   36.1412 C   0  0  0  0  0  0  0  0  0  0  0  0
   20.9533   25.5135   37.3147 C   0  0  0  0  0  0  0  0  0  0  0  0
   22.3653   25.5826   37.3219 C   0  0  0  0  0  0  0  0  0  0  0  0
   23.1168   25.2514   38.4606 O   0  0  0  0  0  0  0  0  0  0  0  0
   22.5577   24.8219   39.6975 C   0  0  0  0  0  0  0  0  0  0  0  0
   17.8363   25.5280   36.8688 C   0  0  0  0  0  0  0  0  0  0  0  0
   17.7398   24.0165   37.0403 C   0  0  0  0  0  0  0  0  0  0  0  0
   24.9750   26.1073   37.0494 H   0  0  0  0  0  0  0  0  0  0  0  0
   30.7580   28.6628   36.2441 H   0  0  0  0  0  0  0  0  0  0  0  0
   32.0983   29.2480   34.2470 H   0  0  0  0  0  0  0  0  0  0  0  0
   31.0669   28.9543   31.9901 H   0  0  0  0  0  0  0  0  0  0  0  0
   28.9258   27.8587   31.7656 H   0  0  0  0  0  0  0  0  0  0  0  0
   25.7672   27.1503   32.2659 H   0  0  0  0  0  0  0  0  0  0  0  0
   27.2968   26.3788   31.7553 H   0  0  0  0  0  0  0  0  0  0  0  0
   20.2190   25.9130   33.0585 H   0  0  0  0  0  0  0  0  0  0  0  0
   20.1701   27.6505   33.6241 H   0  0  0  0  0  0  0  0  0  0  0  0
   18.0608   27.2917   34.5749 H   0  0  0  0  0  0  0  0  0  0  0  0
   18.0845   25.5770   33.9681 H   0  0  0  0  0  0  0  0  0  0  0  0
   20.3967   25.2139   38.1910 H   0  0  0  0  0  0  0  0  0  0  0  0
   21.9818   23.8839   39.5508 H   0  0  0  0  0  0  0  0  0  0  0  0
   21.8994   25.6133   40.1142 H   0  0  0  0  0  0  0  0  0  0  0  0
   23.3782   24.6262   40.4176 H   0  0  0  0  0  0  0  0  0  0  0  0
   16.8572   25.9078   36.5040 H   0  0  0  0  0  0  0  0  0  0  0  0
   18.0484   26.0126   37.8460 H   0  0  0  0  0  0  0  0  0  0  0  0
   17.5126   23.5378   36.0641 H   0  0  0  0  0  0  0  0  0  0  0  0
   18.6932   23.6056   37.4323 H   0  0  0  0  0  0  0  0  0  0  0  0
   16.9268   23.7738   37.7566 H   0  0  0  0  0  0  0  0  0  0  0  0
  1  2  1  0
  2  3  2  0
  2  4  1  0
  4  5  2  0
  5  6  1  0
  6  7  2  0
  7  8  1  0
  8  9  2  0
  9 10  1  0
 10 11  2  0
 11 12  1  0
 12 13  2  0
 13 14  1  0
  1 15  1  0
 15 16  2  0
 16 17  1  0
 17 18  1  0
 18 19  1  0
 19 20  1  0
 20 21  1  0
 21 22  1  0
 22 23  2  0
 23 24  1  0
 24 25  1  0
 20 26  1  0
 26 27  1  0
 13  4  1  0
 23 15  1  0
 12  7  1  0
 21 17  2  0
  1 28  1  0
  8 29  1  0
  9 30  1  0
 10 31  1  0
 11 32  1  0
 14 33  1  0
 14 34  1  0
 18 35  1  0
 18 36  1  0
 19 37  1  0
 19 38  1  0
 22 39  1  0
 25 40  1  0
 25 41  1  0
 25 42  1  0
 26 43  1  0
 26 44  1  0
 27 45  1  0
 27 46  1  0
 27 47  1  0
M  END
$$$$
confid_2
     RDKit          3D

 47 50  0  0  0  0  0  0  0  0999 V2000
   24.4800   26.1000   36.1300 N   0  0  0  0  0  0  0  0  0  0  0  0
   25.2500   26.2500   34.9900 C   0  0  0  0  0  0  0  0  0  0  0  0
   24.7400   25.7600   33.9900 O   0  0  0  0  0  0  0  0  0  0  0  0
   26.5900   26.8900   34.9600 C   0  0  0  0  0  0  0  0  0  0  0  0
   27.0600   27.2400   36.1600 N   0  0  0  0  0  0  0  0  0  0  0  0
   28.3000   27.7100   36.2400 N   0  0  0  0  0  0  0  0  0  0  0  0
   29.0500   27.9600   35.1500 C   0  0  0  0  0  0  0  0  0  0  0  0
   30.3400   28.4900   35.2600 C   0  0  0  0  0  0  0  0  0  0  0  0
   31.1100   28.8200   34.1400 C   0  0  0  0  0  0  0  0  0  0  0  0
   30.5200   28.6700   32.8800 C   0  0  0  0  0  0  0  0  0  0  0  0
   29.2900   28.0200   32.7700 C   0  0  0  0  0  0  0  0  0  0  0  0
   28.5200   27.7100   33.8900 C   0  0  0  0  0  0  0  0  0  0  0  0
   27.2700   27.0800   33.7600 C   0  0  0  0  0  0  0  0  0  0  0  0
   26.7500   26.8800   32.4900 N   0  0  0  0  0  0  0  0  0  0  0  0
   23.4990   25.0624   36.3382 C   0  0  0  0  0  0  0  0  0  0  0  0
   23.4829   23.9591   35.5283 N   0  0  0  0  0  0  0  0  0  0  0  0
   22.5804   22.9693   35.7342 C   0  0  0  0  0  0  0  0  0  0  0  0
   22.4199   21.7249   34.9366 C   0  0  0  0  0  0  0  0  0  0  0  0
   21.2220   21.0219   35.6266 C   0  0  0  0  0  0  0  0  0  0  0  0
   20.8381   21.8843   36.7461 N   0  0  0  0  0  0  0  0  0  0  0  0
   21.6729   23.0292   36.7433 C   0  0  0  0  0  0  0  0  0  0  0  0
   21.6315   24.1250   37.6024 C   0  0  0  0  0  0  0  0  0  0  0  0
   22.5668   25.1664   37.4051 C   0  0  0  0  0  0  0  0  0  0  0  0
   22.5952   26.3021   38.2303 O   0  0  0  0  0  0  0  0  0  0  0  0
   21.7169   26.5213   39.3294 C   0  0  0  0  0  0  0  0  0  0  0  0
   19.7378   21.6105   37.6688 C   0  0  0  0  0  0  0  0  0  0  0  0
   20.2771   21.1588   39.0210 C   0  0  0  0  0  0  0  0  0  0  0  0
   24.6527   26.7706   36.9122 H   0  0  0  0  0  0  0  0  0  0  0  0
   30.7583   28.6623   36.2441 H   0  0  0  0  0  0  0  0  0  0  0  0
   32.0994   29.2454   34.2469 H   0  0  0  0  0  0  0  0  0  0  0  0
   31.0716   28.9442   31.9898 H   0  0  0  0  0  0  0  0  0  0  0  0
   28.9438   27.8128   31.7669 H   0  0  0  0  0  0  0  0  0  0  0  0
   26.7157   27.6566   31.7925 H   0  0  0  0  0  0  0  0  0  0  0  0
   26.3615   25.9529   32.2111 H   0  0  0  0  0  0  0  0  0  0  0  0
   22.1860   21.9711   33.8788 H   0  0  0  0  0  0  0  0  0  0  0  0
   23.3397   21.1049   35.0017 H   0  0  0  0  0  0  0  0  0  0  0  0
   20.3705   20.9193   34.9197 H   0  0  0  0  0  0  0  0  0  0  0  0
   21.5203   20.0207   36.0057 H   0  0  0  0  0  0  0  0  0  0  0  0
   20.8965   24.1667   38.3934 H   0  0  0  0  0  0  0  0  0  0  0  0
   20.6646   26.5573   38.9763 H   0  0  0  0  0  0  0  0  0  0  0  0
   21.8400   25.7150   40.0832 H   0  0  0  0  0  0  0  0  0  0  0  0
   21.9660   27.4924   39.8041 H   0  0  0  0  0  0  0  0  0  0  0  0
   19.1120   22.5203   37.7902 H   0  0  0  0  0  0  0  0  0  0  0  0
   19.0936   20.8051   37.2545 H   0  0  0  0  0  0  0  0  0  0  0  0
   20.8870   20.2386   38.8977 H   0  0  0  0  0  0  0  0  0  0  0  0
   20.9056   21.9520   39.4762 H   0  0  0  0  0  0  0  0  0  0  0  0
   19.4305   20.9388   39.7049 H   0  0  0  0  0  0  0  0  0  0  0  0
  1  2  1  0
  2  3  2  0
  2  4  1  0
  4  5  2  0
  5  6  1  0
  6  7  2  0
  7  8  1  0
  8  9  2  0
  9 10  1  0
 10 11  2  0
 11 12  1  0
 12 13  2  0
 13 14  1  0
  1 15  1  0
 15 16  2  0
 16 17  1  0
 17 18  1  0
 18 19  1  0
 19 20  1  0
 20 21  1  0
 21 22  1  0
 22 23  2  0
 23 24  1  0
 24 25  1  0
 20 26  1  0
 26 27  1  0
 13  4  1  0
 23 15  1  0
 12  7  1  0
 21 17  2  0
  1 28  1  0
  8 29  1  0
  9 30  1  0
 10 31  1  0
 11 32  1  0
 14 33  1  0
 14 34  1  0
 18 35  1  0
 18 36  1  0
 19 37  1  0
 19 38  1  0
 22 39  1  0
 25 40  1  0
 25 41  1  0
 25 42  1  0
 26 43  1  0
 26 44  1  0
 27 45  1  0
 27 46  1  0
 27 47  1  0
M  END
$$$$
confid_3
     RDKit          3D

 47 50  0  0  0  0  0  0  0  0999 V2000
   24.4800   26.1000   36.1300 N   0  0  0  0  0  0  0  0  0  0  0  0
   25.2500   26.2500   34.9900 C   0  0  0  0  0  0  0  0  0  0  0  0
   24.7400   25.7600   33.9900 O   0  0  0  0  0  0  0  0  0  0  0  0
   26.5900   26.8900   34.9600 C   0  0  0  0  0  0  0  0  0  0  0  0
   27.0600   27.2400   36.1600 N   0  0  0  0  0  0  0  0  0  0  0  0
   28.3000   27.7100   36.2400 N   0  0  0  0  0  0  0  0  0  0  0  0
   29.0500   27.9600   35.1500 C   0  0  0  0  0  0  0  0  0  0  0  0
   30.3400   28.4900   35.2600 C   0  0  0  0  0  0  0  0  0  0  0  0
   31.1100   28.8200   34.1400 C   0  0  0  0  0  0  0  0  0  0  0  0
   30.5200   28.6700   32.8800 C   0  0  0  0  0  0  0  0  0  0  0  0
   29.2900   28.0200   32.7700 C   0  0  0  0  0  0  0  0  0  0  0  0
   28.5200   27.7100   33.8900 C   0  0  0  0  0  0  0  0  0  0  0  0
   27.2700   27.0800   33.7600 C   0  0  0  0  0  0  0  0  0  0  0  0
   26.7500   26.8800   32.4900 N   0  0  0  0  0  0  0  0  0  0  0  0
   23.2281   25.4561   36.1969 C   0  0  0  0  0  0  0  0  0  0  0  0
   22.6416   24.9162   35.1333 N   0  0  0  0  0  0  0  0  0  0  0  0
   21.4283   24.2827   35.1719 C   0  0  0  0  0  0  0  0  0  0  0  0
   20.6147   23.6331   34.1187 C   0  0  0  0  0  0  0  0  0  0  0  0
   19.6287   22.7865   34.8650 C   0  0  0  0  0  0  0  0  0  0  0  0
   19.5008   23.4582   36.1333 N   0  0  0  0  0  0  0  0  0  0  0  0
   20.7366   24.1708   36.3517 C   0  0  0  0  0  0  0  0  0  0  0  0
   21.2994   24.7122   37.4785 C   0  0  0  0  0  0  0  0  0  0  0  0
   22.5498   25.3640   37.4309 C   0  0  0  0  0  0  0  0  0  0  0  0
   23.0441   25.8611   38.5160 O   0  0  0  0  0  0  0  0  0  0  0  0
   23.5392   26.3589   39.6029 C   0  0  0  0  0  0  0  0  0  0  0  0
   18.3460   23.3994   36.9940 C   0  0  0  0  0  0  0  0  0  0  0  0
   17.1321   24.0882   36.4235 C   0  0  0  0  0  0  0  0  0  0  0  0
   24.8595   26.5022   37.0427 H   0  0  0  0  0  0  0  0  0  0  0  0
   30.7667   28.6545   36.2353 H   0  0  0  0  0  0  0  0  0  0  0  0
   32.1102   29.1730   34.2468 H   0  0  0  0  0  0  0  0  0  0  0  0
   31.0155   29.0542   32.0194 H   0  0  0  0  0  0  0  0  0  0  0  0
   28.9448   27.7593   31.7786 H   0  0  0  0  0  0  0  0  0  0  0  0
   27.0575   26.0534   31.9273 H   0  0  0  0  0  0  0  0  0  0  0  0
   26.0516   27.5164   32.0402 H   0  0  0  0  0  0  0  0  0  0  0  0
   21.2320   22.9246   33.5082 H   0  0  0  0  0  0  0  0  0  0  0  0
   20.0975   24.3739   33.4753 H   0  0  0  0  0  0  0  0  0  0  0  0
   19.9992   21.7594   35.0769 H   0  0  0  0  0  0  0  0  0  0  0  0
   18.6422   22.7253   34.3274 H   0  0  0  0  0  0  0  0  0  0  0  0
   20.7663   24.6339   38.4244 H   0  0  0  0  0  0  0  0  0  0  0  0
   24.4473   27.0492   39.4643 H   0  0  0  0  0  0  0  0  0  0  0  0
   23.7860   25.6553   40.4548 H   0  0  0  0  0  0  0  0  0  0  0  0
   22.8184   27.0822   40.1215 H   0  0  0  0  0  0  0  0  0  0  0  0
   18.0597   22.3608   37.2521 H   0  0  0  0  0  0  0  0  0  0  0  0
   18.5715   23.9308   37.9614 H   0  0  0  0  0  0  0  0  0  0  0  0
   16.4100   24.1942   37.2685 H   0  0  0  0  0  0  0  0  0  0  0  0
   16.6976   23.5312   35.5729 H   0  0  0  0  0  0  0  0  0  0  0  0
   17.3538   25.1166   36.0824 H   0  0  0  0  0  0  0  0  0  0  0  0
  1  2  1  0
  2  3  2  0
  2  4  1  0
  4  5  2  0
  5  6  1  0
  6  7  2  0
  7  8  1  0
  8  9  2  0
  9 10  1  0
 10 11  2  0
 11 12  1  0
 12 13  2  0
 13 14  1  0
  1 15  1  0
 15 16  2  0
 16 17  1  0
 17 18  1  0
 18 19  1  0
 19 20  1  0
 20 21  1  0
 21 22  1  0
 22 23  2  0
 23 24  1  0
 24 25  1  0
 20 26  1  0
 26 27  1  0
 13  4  1  0
 23 15  1  0
 12  7  1  0
 21 17  2  0
  1 28  1  0
  8 29  1  0
  9 30  1  0
 10 31  1  0
 11 32  1  0
 14 33  1  0
 14 34  1  0
 18 35  1  0
 18 36  1  0
 19 37  1  0
 19 38  1  0
 22 39  1  0
 25 40  1  0
 25 41  1  0
 25 42  1  0
 26 43  1  0
 26 44  1  0
 27 45  1  0
 27 46  1  0
 27 47  1  0
M  END
$$$$
confid_4
     RDKit          3D

 47 50  0  0  0  0  0  0  0  0999 V2000
   24.4800   26.1000   36.1300 N   0  0  0  0  0  0  0  0  0  0  0  0
   25.2500   26.2500   34.9900 C   0  0  0  0  0  0  0  0  0  0  0  0
   24.7400   25.7600   33.9900 O   0  0  0  0  0  0  0  0  0  0  0  0
   26.5900   26.8900   34.9600 C   0  0  0  0  0  0  0  0  0  0  0  0
   27.0600   27.2400   36.1600 N   0  0  0  0  0  0  0  0  0  0  0  0
   28.3000   27.7100   36.2400 N   0  0  0  0  0  0  0  0  0  0  0  0
   29.0500   27.9600   35.1500 C   0  0  0  0  0  0  0  0  0  0  0  0
   30.3400   28.4900   35.2600 C   0  0  0  0  0  0  0  0  0  0  0  0
   31.1100   28.8200   34.1400 C   0  0  0  0  0  0  0  0  0  0  0  0
   30.5200   28.6700   32.8800 C   0  0  0  0  0  0  0  0  0  0  0  0
   29.2900   28.0200   32.7700 C   0  0  0  0  0  0  0  0  0  0  0  0
   28.5200   27.7100   33.8900 C   0  0  0  0  0  0  0  0  0  0  0  0
   27.2700   27.0800   33.7600 C   0  0  0  0  0  0  0  0  0  0  0  0
   26.7500   26.8800   32.4900 N   0  0  0  0  0  0  0  0  0  0  0  0
   23.0396   26.0181   36.1435 C   0  0  0  0  0  0  0  0  0  0  0  0
   22.3225   26.3527   35.0269 N   0  0  0  0  0  0  0  0  0  0  0  0
   20.9682   26.3045   35.0410 C   0  0  0  0  0  0  0  0  0  0  0  0
   20.0507   26.6145   33.9131 C   0  0  0  0  0  0  0  0  0  0  0  0
   18.6495   26.3490   34.5224 C   0  0  0  0  0  0  0  0  0  0  0  0
   18.8817   25.9586   35.9146 N   0  0  0  0  0  0  0  0  0  0  0  0
   20.2781   25.9362   36.1517 C   0  0  0  0  0  0  0  0  0  0  0  0
   20.9453   25.5790   37.3210 C   0  0  0  0  0  0  0  0  0  0  0  0
   22.3583   25.6229   37.3259 C   0  0  0  0  0  0  0  0  0  0  0  0
   23.1052   25.2809   38.4642 O   0  0  0  0  0  0  0  0  0  0  0  0
   22.5394   24.8800   39.7075 C   0  0  0  0  0  0  0  0  0  0  0  0
   17.8303   25.6063   36.8669 C   0  0  0  0  0  0  0  0  0  0  0  0
   17.6242   26.7330   37.8718 C   0  0  0  0  0  0  0  0  0  0  0  0
   24.9761   26.1014   37.0491 H   0  0  0  0  0  0  0  0  0  0  0  0
   30.7583   28.6621   36.2441 H   0  0  0  0  0  0  0  0  0  0  0  0
   32.0994   29.2454   34.2469 H   0  0  0  0  0  0  0  0  0  0  0  0
   31.0715   28.9444   31.9899 H   0  0  0  0  0  0  0  0  0  0  0  0
   28.9437   27.8129   31.7669 H   0  0  0  0  0  0  0  0  0  0  0  0
   26.7156   27.6567   31.7927 H   0  0  0  0  0  0  0  0  0  0  0  0
   26.3615   25.9529   32.2110 H   0  0  0  0  0  0  0  0  0  0  0  0
   20.1614   27.6771   33.6093 H   0  0  0  0  0  0  0  0  0  0  0  0
   20.2506   25.9369   33.0556 H   0  0  0  0  0  0  0  0  0  0  0  0
   18.1390   25.5246   33.9795 H   0  0  0  0  0  0  0  0  0  0  0  0
   18.0255   27.2678   34.4863 H   0  0  0  0  0  0  0  0  0  0  0  0
   20.3852   25.2748   38.1936 H   0  0  0  0  0  0  0  0  0  0  0  0
   21.9069   25.6943   40.1189 H   0  0  0  0  0  0  0  0  0  0  0  0
   23.3569   24.6683   40.4258 H   0  0  0  0  0  0  0  0  0  0  0  0
   21.9357   23.9587   39.5733 H   0  0  0  0  0  0  0  0  0  0  0  0
   16.8757   25.4343   36.3241 H   0  0  0  0  0  0  0  0  0  0  0  0
   18.0970   24.6661   37.3943 H   0  0  0  0  0  0  0  0  0  0  0  0
   17.3355   27.6658   37.3425 H   0  0  0  0  0  0  0  0  0  0  0  0
   18.5544   26.9165   38.4482 H   0  0  0  0  0  0  0  0  0  0  0  0
   16.8145   26.4574   38.5798 H   0  0  0  0  0  0  0  0  0  0  0  0
  1  2  1  0
  2  3  2  0
  2  4  1  0
  4  5  2  0
  5  6  1  0
  6  7  2  0
  7  8  1  0
  8  9  2  0
  9 10  1  0
 10 11  2  0
 11 12  1  0
 12 13  2  0
 13 14  1  0
  1 15  1  0
 15 16  2  0
 16 17  1  0
 17 18  1  0
 18 19  1  0
 19 20  1  0
 20 21  1  0
 21 22  1  0
 22 23  2  0
 23 24  1  0
 24 25  1  0
 20 26  1  0
 26 27  1  0
 13  4  1  0
 23 15  1  0
 12  7  1  0
 21 17  2  0
  1 28  1  0
  8 29  1  0
  9 30  1  0
 10 31  1  0
 11 32  1  0
 14 33  1  0
 14 34  1  0
 18 35  1  0
 18 36  1  0
 19 37  1  0
 19 38  1  0
 22 39  1  0
 25 40  1  0
 25 41  1  0
 25 42  1  0
 26 43  1  0
 26 44  1  0
 27 45  1  0
 27 46  1  0
 27 47  1  0
M  END
$$$$
