confid_0
     RDKit          3D

 46 49  0  0  0  0  0  0  0  0999 V2000
   24.5500   26.3900   36.2500 N   0  0  0  0  0  0  0  0  0  0  0  0
   25.6000   26.1300   35.4000 C   0  0  0  0  0  0  0  0  0  0  0  0
   25.4300   25.4300   34.4200 O   0  0  0  0  0  0  0  0  0  0  0  0
   26.9800   26.6300   35.7100 C   0  0  0  0  0  0  0  0  0  0  0  0
   27.3200   26.8200   36.9800 N   0  0  0  0  0  0  0  0  0  0  0  0
   28.4700   27.4000   37.3100 N   0  0  0  0  0  0  0  0  0  0  0  0
   29.4000   27.6300   36.3700 C   0  0  0  0  0  0  0  0  0  0  0  0
   30.6600   28.0500   36.8000 C   0  0  0  0  0  0  0  0  0  0  0  0
   31.5700   28.3600   35.7800 C   0  0  0  0  0  0  0  0  0  0  0  0
   31.3700   28.1000   34.4300 C   0  0  0  0  0  0  0  0  0  0  0  0
   30.1200   27.5900   34.0500 C   0  0  0  0  0  0  0  0  0  0  0  0
   29.1500   27.3400   35.0300 C   0  0  0  0  0  0  0  0  0  0  0  0
   27.8800   26.8900   34.6600 C   0  0  0  0  0  0  0  0  0  0  0  0
   27.4800   26.6100   33.3700 N   0  0  0  0  0  0  0  0  0  0  0  0
   30.9618   28.3244   38.1800 N   0  0  0  0  0  0  0  0  0  0  0  0
   30.2487   29.3134   38.9844 C   0  0  0  0  0  0  0  0  0  0  0  0
   31.1493   29.5973   40.2070 C   0  0  0  0  0  0  0  0  0  0  0  0
   32.3512   28.7296   39.9913 C   0  0  0  0  0  0  0  0  0  0  0  0
   33.4996   28.5405   40.7997 C   0  0  0  0  0  0  0  0  0  0  0  0
   33.7538   29.2228   42.0037 O   0  0  0  0  0  0  0  0  0  0  0  0
   33.0259   30.3265   42.5270 C   0  0  0  0  0  0  0  0  0  0  0  0
   34.4625   27.5984   40.3788 C   0  0  0  0  0  0  0  0  0  0  0  0
   35.5988   27.4085   41.1815 O   0  0  0  0  0  0  0  0  0  0  0  0
   36.6521   26.4968   40.8870 C   0  0  0  0  0  0  0  0  0  0  0  0
   34.2694   26.8752   39.1780 C   0  0  0  0  0  0  0  0  0  0  0  0
   33.1283   27.0844   38.3990 C   0  0  0  0  0  0  0  0  0  0  0  0
   32.1899   28.0243   38.8237 C   0  0  0  0  0  0  0  0  0  0  0  0
   24.6739   26.9932   37.0934 H   0  0  0  0  0  0  0  0  0  0  0  0
   23.6001   26.0039   36.0504 H   0  0  0  0  0  0  0  0  0  0  0  0
   32.5255   28.7839   36.0621 H   0  0  0  0  0  0  0  0  0  0  0  0
   32.1345   28.3176   33.6953 H   0  0  0  0  0  0  0  0  0  0  0  0
   29.9363   27.3929   33.0016 H   0  0  0  0  0  0  0  0  0  0  0  0
   27.5825   27.3394   32.6301 H   0  0  0  0  0  0  0  0  0  0  0  0
   27.4183   25.6173   33.0515 H   0  0  0  0  0  0  0  0  0  0  0  0
   30.0919   30.2424   38.3937 H   0  0  0  0  0  0  0  0  0  0  0  0
   29.2683   28.9078   39.3125 H   0  0  0  0  0  0  0  0  0  0  0  0
   31.4319   30.6700   40.2235 H   0  0  0  0  0  0  0  0  0  0  0  0
   30.6213   29.3046   41.1387 H   0  0  0  0  0  0  0  0  0  0  0  0
   31.9999   30.0183   42.8086 H   0  0  0  0  0  0  0  0  0  0  0  0
   33.0179   31.1632   41.7990 H   0  0  0  0  0  0  0  0  0  0  0  0
   33.5338   30.6817   43.4468 H   0  0  0  0  0  0  0  0  0  0  0  0
   37.4169   26.5557   41.6883 H   0  0  0  0  0  0  0  0  0  0  0  0
   37.1291   26.7635   39.9203 H   0  0  0  0  0  0  0  0  0  0  0  0
   36.2589   25.4590   40.8469 H   0  0  0  0  0  0  0  0  0  0  0  0
   34.9937   26.1454   38.8433 H   0  0  0  0  0  0  0  0  0  0  0  0
   32.9766   26.5138   37.4921 H   0  0  0  0  0  0  0  0  0  0  0  0
  1  2  1  0
  2  3  2  0
  2  4  1  0
  4  5  2  0
  5  6  1  0
  6  7  2  0
  7  8  1  0
  8  9  2  0
  9 10  1  0
 10 11  2  0
 11 12  1  0
 12 13  2  0
 13 14  1  0
  8 15  1  0
 15 16  1  0
 16 17  1  0
 17 18  1  0
 18 19  2  0
 19 20  1  0
 20 21  1  0
 19 22  1  0
 22 23  1  0
 23 24  1  0
 22 25  2  0
 25 26  1  0
 26 27  2  0
 13  4  1  0
 27 15  1  0
 12  7  1  0
 27 18  1  0
  1 28  1  0
  1 29  1  0
  9 30  1  0
 10 31  1  0
 11 32  1  0
 14 33  1  0
 14 34  1  0
 16 35  1  0
 16 36  1  0
 17 37  1  0
 17 38  1  0
 21 39  1  0
 21 40  1  0
 21 41  1  0
 24 42  1  0
 24 43  1  0
 24 44  1  0
 25 45  1  0
 26 46  1  0
M  END
$$$$
confid_1
     RDKit          3D

 46 49  0  0  0  0  0  0  0  0999 V2000
   24.5500   26.3900   36.2500 N   0  0  0  0  0  0  0  0  0  0  0  0
   25.6000   26.1300   35.4000 C   0  0  0  0  0  0  0  0  0  0  0  0
   25.4300   25.4300   34.4200 O   0  0  0  0  0  0  0  0  0  0  0  0
   26.9800   26.6300   35.7100 C   0  0  0  0  0  0  0  0  0  0  0  0
   27.3200   26.8200   36.9800 N   0  0  0  0  0  0  0  0  0  0  0  0
   28.4700   27.4000   37.3100 N   0  0  0  0  0  0  0  0  0  0  0  0
   29.4000   27.6300   36.3700 C   0  0  0  0  0  0  0  0  0  0  0  0
   30.6600   28.0500   36.8000 C   0  0  0  0  0  0  0  0  0  0  0  0
   31.5700   28.3600   35.7800 C   0  0  0  0  0  0  0  0  0  0  0  0
   31.3700   28.1000   34.4300 C   0  0  0  0  0  0  0  0  0  0  0  0
   30.1200   27.5900   34.0500 C   0  0  0  0  0  0  0  0  0  0  0  0
   29.1500   27.3400   35.0300 C   0  0  0  0  0  0  0  0  0  0  0  0
   27.8800   26.8900   34.6600 C   0  0  0  0  0  0  0  0  0  0  0  0
   27.4800   26.6100   33.3700 N   0  0  0  0  0  0  0  0  0  0  0  0
   30.9640   28.3184   38.1807 N   0  0  0  0  0  0  0  0  0  0  0  0
   30.2416   29.2939   39.0007 C   0  0  0  0  0  0  0  0  0  0  0  0
   31.1470   29.5838   40.2213 C   0  0  0  0  0  0  0  0  0  0  0  0
   32.3385   28.7196   39.9866 C   0  0  0  0  0  0  0  0  0  0  0  0
   33.4688   28.5805   40.8002 C   0  0  0  0  0  0  0  0  0  0  0  0
   33.5207   29.3470   41.9785 O   0  0  0  0  0  0  0  0  0  0  0  0
   34.5755   29.3495   42.9333 C   0  0  0  0  0  0  0  0  0  0  0  0
   34.4869   27.6753   40.3821 C   0  0  0  0  0  0  0  0  0  0  0  0
   35.6395   27.5069   41.1651 O   0  0  0  0  0  0  0  0  0  0  0  0
   36.7216   26.6387   40.8451 C   0  0  0  0  0  0  0  0  0  0  0  0
   34.3155   26.9520   39.1723 C   0  0  0  0  0  0  0  0  0  0  0  0
   33.1664   27.1217   38.3901 C   0  0  0  0  0  0  0  0  0  0  0  0
   32.1969   28.0258   38.8191 C   0  0  0  0  0  0  0  0  0  0  0  0
   24.6742   26.9922   37.0940 H   0  0  0  0  0  0  0  0  0  0  0  0
   23.6000   26.0044   36.0501 H   0  0  0  0  0  0  0  0  0  0  0  0
   32.5254   28.7843   36.0615 H   0  0  0  0  0  0  0  0  0  0  0  0
   32.1344   28.3176   33.6952 H   0  0  0  0  0  0  0  0  0  0  0  0
   29.9363   27.3930   33.0015 H   0  0  0  0  0  0  0  0  0  0  0  0
   27.5826   27.3393   32.6301 H   0  0  0  0  0  0  0  0  0  0  0  0
   27.4182   25.6173   33.0515 H   0  0  0  0  0  0  0  0  0  0  0  0
   29.2713   28.8709   39.3354 H   0  0  0  0  0  0  0  0  0  0  0  0
   30.0658   30.2248   38.4192 H   0  0  0  0  0  0  0  0  0  0  0  0
   31.4467   30.6535   40.2501 H   0  0  0  0  0  0  0  0  0  0  0  0
   30.6428   29.2957   41.1687 H   0  0  0  0  0  0  0  0  0  0  0  0
   35.5208   29.6904   42.4613 H   0  0  0  0  0  0  0  0  0  0  0  0
   34.6947   28.3387   43.3771 H   0  0  0  0  0  0  0  0  0  0  0  0
   34.3196   30.0578   43.7476 H   0  0  0  0  0  0  0  0  0  0  0  0
   36.3660   25.5880   40.7926 H   0  0  0  0  0  0  0  0  0  0  0  0
   37.1790   26.9388   39.8787 H   0  0  0  0  0  0  0  0  0  0  0  0
   37.4917   26.7128   41.6398 H   0  0  0  0  0  0  0  0  0  0  0  0
   35.0647   26.2518   38.8300 H   0  0  0  0  0  0  0  0  0  0  0  0
   33.0379   26.5547   37.4774 H   0  0  0  0  0  0  0  0  0  0  0  0
  1  2  1  0
  2  3  2  0
  2  4  1  0
  4  5  2  0
  5  6  1  0
  6  7  2  0
  7  8  1  0
  8  9  2  0
  9 10  1  0
 10 11  2  0
 11 12  1  0
 12 13  2  0
 13 14  1  0
  8 15  1  0
 15 16  1  0
 16 17  1  0
 17 18  1  0
 18 19  2  0
 19 20  1  0
 20 21  1  0
 19 22  1  0
 22 23  1  0
 23 24  1  0
 22 25  2  0
 25 26  1  0
 26 27  2  0
 13  4  1  0
 27 15  1  0
 12  7  1  0
 27 18  1  0
  1 28  1  0
  1 29  1  0
  9 30  1  0
 10 31  1  0
 11 32  1  0
 14 33  1  0
 14 34  1  0
 16 35  1  0
 16 36  1  0
 17 37  1  0
 17 38  1  0
 21 39  1  0
 21 40  1  0
 21 41  1  0
 24 42  1  0
 24 43  1  0
 24 44  1  0
 25 45  1  0
 26 46  1  0
M  END
$$$$
confid_2
     RDKit          3D

 46 49  0  0  0  0  0  0  0  0999 V2000
   24.5500   26.3900   36.2500 N   0  0  0  0  0  0  0  0  0  0  0  0
   25.6000   26.1300   35.4000 C   0  0  0  0  0  0  0  0  0  0  0  0
   25.4300   25.4300   34.4200 O   0  0  0  0  0  0  0  0  0  0  0  0
   26.9800   26.6300   35.7100 C   0  0  0  0  0  0  0  0  0  0  0  0
   27.3200   26.8200   36.9800 N   0  0  0  0  0  0  0  0  0  0  0  0
   28.4700   27.4000   37.3100 N   0  0  0  0  0  0  0  0  0  0  0  0
   29.4000   27.6300   36.3700 C   0  0  0  0  0  0  0  0  0  0  0  0
   30.6600   28.0500   36.8000 C   0  0  0  0  0  0  0  0  0  0  0  0
   31.5700   28.3600   35.7800 C   0  0  0  0  0  0  0  0  0  0  0  0
   31.3700   28.1000   34.4300 C   0  0  0  0  0  0  0  0  0  0  0  0
   30.1200   27.5900   34.0500 C   0  0  0  0  0  0  0  0  0  0  0  0
   29.1500   27.3400   35.0300 C   0  0  0  0  0  0  0  0  0  0  0  0
   27.8800   26.8900   34.6600 C   0  0  0  0  0  0  0  0  0  0  0  0
   27.4800   26.6100   33.3700 N   0  0  0  0  0  0  0  0  0  0  0  0
   30.9677   28.3145   38.1779 N   0  0  0  0  0  0  0  0  0  0  0  0
   31.3486   29.6253   38.7011 C   0  0  0  0  0  0  0  0  0  0  0  0
   31.3817   29.4708   40.2411 C   0  0  0  0  0  0  0  0  0  0  0  0
   31.0624   28.0282   40.4575 C   0  0  0  0  0  0  0  0  0  0  0  0
   30.9972   27.3381   41.6729 C   0  0  0  0  0  0  0  0  0  0  0  0
   31.2336   28.0705   42.8504 O   0  0  0  0  0  0  0  0  0  0  0  0
   31.1916   27.5624   44.1794 C   0  0  0  0  0  0  0  0  0  0  0  0
   30.7029   25.9439   41.6360 C   0  0  0  0  0  0  0  0  0  0  0  0
   30.6286   25.2110   42.8312 O   0  0  0  0  0  0  0  0  0  0  0  0
   30.3906   23.8092   42.9146 C   0  0  0  0  0  0  0  0  0  0  0  0
   30.4948   25.3134   40.3807 C   0  0  0  0  0  0  0  0  0  0  0  0
   30.5664   26.0445   39.1883 C   0  0  0  0  0  0  0  0  0  0  0  0
   30.8367   27.4091   39.2614 C   0  0  0  0  0  0  0  0  0  0  0  0
   23.6002   26.0034   36.0508 H   0  0  0  0  0  0  0  0  0  0  0  0
   24.6744   26.9916   37.0945 H   0  0  0  0  0  0  0  0  0  0  0  0
   32.5317   28.7667   36.0657 H   0  0  0  0  0  0  0  0  0  0  0  0
   32.1341   28.3190   33.6952 H   0  0  0  0  0  0  0  0  0  0  0  0
   29.9372   27.4175   32.9983 H   0  0  0  0  0  0  0  0  0  0  0  0
   26.5965   27.0152   32.9872 H   0  0  0  0  0  0  0  0  0  0  0  0
   28.1237   26.1365   32.6986 H   0  0  0  0  0  0  0  0  0  0  0  0
   30.5974   30.3875   38.3999 H   0  0  0  0  0  0  0  0  0  0  0  0
   32.3512   29.9116   38.3158 H   0  0  0  0  0  0  0  0  0  0  0  0
   32.3899   29.7091   40.6437 H   0  0  0  0  0  0  0  0  0  0  0  0
   30.6096   30.1099   40.7209 H   0  0  0  0  0  0  0  0  0  0  0  0
   30.1778   27.1689   44.4076 H   0  0  0  0  0  0  0  0  0  0  0  0
   31.9632   26.7748   44.3158 H   0  0  0  0  0  0  0  0  0  0  0  0
   31.4105   28.3885   44.8864 H   0  0  0  0  0  0  0  0  0  0  0  0
   31.1912   23.2548   42.3809 H   0  0  0  0  0  0  0  0  0  0  0  0
   30.3982   23.5030   43.9810 H   0  0  0  0  0  0  0  0  0  0  0  0
   29.3979   23.5632   42.4822 H   0  0  0  0  0  0  0  0  0  0  0  0
   30.2773   24.2562   40.3167 H   0  0  0  0  0  0  0  0  0  0  0  0
   30.4157   25.5537   38.2353 H   0  0  0  0  0  0  0  0  0  0  0  0
  1  2  1  0
  2  3  2  0
  2  4  1  0
  4  5  2  0
  5  6  1  0
  6  7  2  0
  7  8  1  0
  8  9  2  0
  9 10  1  0
 10 11  2  0
 11 12  1  0
 12 13  2  0
 13 14  1  0
  8 15  1  0
 15 16  1  0
 16 17  1  0
 17 18  1  0
 18 19  2  0
 19 20  1  0
 20 21  1  0
 19 22  1  0
 22 23  1  0
 23 24  1  0
 22 25  2  0
 25 26  1  0
 26 27  2  0
 13  4  1  0
 27 15  1  0
 12  7  1  0
 27 18  1  0
  1 28  1  0
  1 29  1  0
  9 30  1  0
 10 31  1  0
 11 32  1  0
 14 33  1  0
 14 34  1  0
 16 35  1  0
 16 36  1  0
 17 37  1  0
 17 38  1  0
 21 39  1  0
 21 40  1  0
 21 41  1  0
 24 42  1  0
 24 43  1  0
 24 44  1  0
 25 45  1  0
 26 46  1  0
M  END
$$$$
confid_3
     RDKit          3D

 46 49  0  0  0  0  0  0  0  0999 V2000
   24.5500   26.3900   36.2500 N   0  0  0  0  0  0  0  0  0  0  0  0
   25.6000   26.1300   35.4000 C   0  0  0  0  0  0  0  0  0  0  0  0
   25.4300   25.4300   34.4200 O   0  0  0  0  0  0  0  0  0  0  0  0
   26.9800   26.6300   35.7100 C   0  0  0  0  0  0  0  0  0  0  0  0
   27.3200   26.8200   36.9800 N   0  0  0  0  0  0  0  0  0  0  0  0
   28.4700   27.4000   37.3100 N   0  0  0  0  0  0  0  0  0  0  0  0
   29.4000   27.6300   36.3700 C   0  0  0  0  0  0  0  0  0  0  0  0
   30.6600   28.0500   36.8000 C   0  0  0  0  0  0  0  0  0  0  0  0
   31.5700   28.3600   35.7800 C   0  0  0  0  0  0  0  0  0  0  0  0
   31.3700   28.1000   34.4300 C   0  0  0  0  0  0  0  0  0  0  0  0
   30.1200   27.5900   34.0500 C   0  0  0  0  0  0  0  0  0  0  0  0
   29.1500   27.3400   35.0300 C   0  0  0  0  0  0  0  0  0  0  0  0
   27.8800   26.8900   34.6600 C   0  0  0  0  0  0  0  0  0  0  0  0
   27.4800   26.6100   33.3700 N   0  0  0  0  0  0  0  0  0  0  0  0
   30.9737   28.2615   38.1873 N   0  0  0  0  0  0  0  0  0  0  0  0
   31.0119   27.1860   39.1794 C   0  0  0  0  0  0  0  0  0  0  0  0
   31.7632   27.7596   40.4040 C   0  0  0  0  0  0  0  0  0  0  0  0
   32.0954   29.1532   39.9904 C   0  0  0  0  0  0  0  0  0  0  0  0
   32.7612   30.1317   40.7373 C   0  0  0  0  0  0  0  0  0  0  0  0
   33.2000   29.7796   42.0266 O   0  0  0  0  0  0  0  0  0  0  0  0
   33.8854   30.6267   42.9416 C   0  0  0  0  0  0  0  0  0  0  0  0
   32.9470   31.4144   40.1452 C   0  0  0  0  0  0  0  0  0  0  0  0
   33.6159   32.4235   40.8552 O   0  0  0  0  0  0  0  0  0  0  0  0
   33.8601   33.7384   40.3662 C   0  0  0  0  0  0  0  0  0  0  0  0
   32.4452   31.6525   38.8385 C   0  0  0  0  0  0  0  0  0  0  0  0
   31.7811   30.6444   38.1287 C   0  0  0  0  0  0  0  0  0  0  0  0
   31.6353   29.3946   38.7275 C   0  0  0  0  0  0  0  0  0  0  0  0
   24.6739   26.9932   37.0933 H   0  0  0  0  0  0  0  0  0  0  0  0
   23.6001   26.0040   36.0503 H   0  0  0  0  0  0  0  0  0  0  0  0
   32.5392   28.7496   36.0643 H   0  0  0  0  0  0  0  0  0  0  0  0
   32.1357   28.3149   33.6957 H   0  0  0  0  0  0  0  0  0  0  0  0
   29.9377   27.4168   32.9984 H   0  0  0  0  0  0  0  0  0  0  0  0
   28.1242   26.1386   32.6979 H   0  0  0  0  0  0  0  0  0  0  0  0
   26.5962   27.0148   32.9873 H   0  0  0  0  0  0  0  0  0  0  0  0
   31.5570   26.3085   38.7683 H   0  0  0  0  0  0  0  0  0  0  0  0
   29.9801   26.8881   39.4622 H   0  0  0  0  0  0  0  0  0  0  0  0
   31.1098   27.7699   41.3028 H   0  0  0  0  0  0  0  0  0  0  0  0
   32.6932   27.1859   40.6060 H   0  0  0  0  0  0  0  0  0  0  0  0
   34.0889   30.0587   43.8724 H   0  0  0  0  0  0  0  0  0  0  0  0
   34.8571   30.9497   42.5127 H   0  0  0  0  0  0  0  0  0  0  0  0
   33.2547   31.5030   43.2006 H   0  0  0  0  0  0  0  0  0  0  0  0
   34.4093   34.3150   41.1384 H   0  0  0  0  0  0  0  0  0  0  0  0
   34.4817   33.6951   39.4470 H   0  0  0  0  0  0  0  0  0  0  0  0
   32.8986   34.2529   40.1566 H   0  0  0  0  0  0  0  0  0  0  0  0
   32.5593   32.6174   38.3644 H   0  0  0  0  0  0  0  0  0  0  0  0
   31.3849   30.8426   37.1417 H   0  0  0  0  0  0  0  0  0  0  0  0
  1  2  1  0
  2  3  2  0
  2  4  1  0
  4  5  2  0
  5  6  1  0
  6  7  2  0
  7  8  1  0
  8  9  2  0
  9 10  1  0
 10 11  2  0
 11 12  1  0
 12 13  2  0
 13 14  1  0
  8 15  1  0
 15 16  1  0
 16 17  1  0
 17 18  1  0
 18 19  2  0
 19 20  1  0
 20 21  1  0
 19 22  1  0
 22 23  1  0
 23 24  1  0
 22 25  2  0
 25 26  1  0
 26 27  2  0
 13  4  1  0
 27 15  1  0
 12  7  1  0
 27 18  1  0
  1 28  1  0
  1 29  1  0
  9 30  1  0
 10 31  1  0
 11 32  1  0
 14 33  1  0
 14 34  1  0
 16 35  1  0
 16 36  1  0
 17 37  1  0
 17 38  1  0
 21 39  1  0
 21 40  1  0
 21 41  1  0
 24 42  1  0
 24 43  1  0
 24 44  1  0
 25 45  1  0
 26 46  1  0
M  END
$$$$
confid_4
     RDKit          3D

 46 49  0  0  0  0  0  0  0  0999 V2000
   24.5500   26.3900   36.2500 N   0  0  0  0  0  0  0  0  0  0  0  0
   25.6000   26.1300   35.4000 C   0  0  0  0  0  0  0  0  0  0  0  0
   25.4300   25.4300   34.4200 O   0  0  0  0  0  0  0  0  0  0  0  0
   26.9800   26.6300   35.7100 C   0  0  0  0  0  0  0  0  0  0  0  0
   27.3200   26.8200   36.9800 N   0  0  0  0  0  0  0  0  0  0  0  0
   28.4700   27.4000   37.3100 N   0  0  0  0  0  0  0  0  0  0  0  0
   29.4000   27.6300   36.3700 C   0  0  0  0  0  0  0  0  0  0  0  0
   30.6600   28.0500   36.8000 C   0  0  0  0  0  0  0  0  0  0  0  0
   31.5700   28.3600   35.7800 C   0  0  0  0  0  0  0  0  0  0  0  0
   31.3700   28.1000   34.4300 C   0  0  0  0  0  0  0  0  0  0  0  0
   30.1200   27.5900   34.0500 C   0  0  0  0  0  0  0  0  0  0  0  0
   29.1500   27.3400   35.0300 C   0  0  0  0  0  0  0  0  0  0  0  0
   27.8800   26.8900   34.6600 C   0  0  0  0  0  0  0  0  0  0  0  0
   27.4800   26.6100   33.3700 N   0  0  0  0  0  0  0  0  0  0  0  0
   30.9719   28.3071   38.1771 N   0  0  0  0  0  0  0  0  0  0  0  0
   32.0724   27.6786   38.9041 C   0  0  0  0  0  0  0  0  0  0  0  0
   32.0036   28.2450   40.3427 C   0  0  0  0  0  0  0  0  0  0  0  0
   30.8857   29.2327   40.2790 C   0  0  0  0  0  0  0  0  0  0  0  0
   30.4356   30.0832   41.2951 C   0  0  0  0  0  0  0  0  0  0  0  0
   31.0721   29.9955   42.5465 O   0  0  0  0  0  0  0  0  0  0  0  0
   30.7685   30.7714   43.6999 C   0  0  0  0  0  0  0  0  0  0  0  0
   29.3695   30.9798   40.9942 C   0  0  0  0  0  0  0  0  0  0  0  0
   28.8805   31.8445   41.9856 O   0  0  0  0  0  0  0  0  0  0  0  0
   27.8227   32.7797   41.8011 C   0  0  0  0  0  0  0  0  0  0  0  0
   28.8189   30.9861   39.6853 C   0  0  0  0  0  0  0  0  0  0  0  0
   29.3036   30.1202   38.6972 C   0  0  0  0  0  0  0  0  0  0  0  0
   30.3291   29.2382   39.0317 C   0  0  0  0  0  0  0  0  0  0  0  0
   24.6739   26.9933   37.0933 H   0  0  0  0  0  0  0  0  0  0  0  0
   23.6001   26.0040   36.0504 H   0  0  0  0  0  0  0  0  0  0  0  0
   32.5280   28.7755   36.0659 H   0  0  0  0  0  0  0  0  0  0  0  0
   32.1333   28.3209   33.6950 H   0  0  0  0  0  0  0  0  0  0  0  0
   29.9372   27.4182   32.9982 H   0  0  0  0  0  0  0  0  0  0  0  0
   26.5962   27.0149   32.9874 H   0  0  0  0  0  0  0  0  0  0  0  0
   28.1243   26.1388   32.6978 H   0  0  0  0  0  0  0  0  0  0  0  0
   31.9427   26.5749   38.9091 H   0  0  0  0  0  0  0  0  0  0  0  0
   33.0417   27.9428   38.4290 H   0  0  0  0  0  0  0  0  0  0  0  0
   32.9538   28.7515   40.6173 H   0  0  0  0  0  0  0  0  0  0  0  0
   31.7646   27.4436   41.0744 H   0  0  0  0  0  0  0  0  0  0  0  0
   29.7237   30.5838   44.0253 H   0  0  0  0  0  0  0  0  0  0  0  0
   30.9323   31.8497   43.4919 H   0  0  0  0  0  0  0  0  0  0  0  0
   31.4475   30.4701   44.5235 H   0  0  0  0  0  0  0  0  0  0  0  0
   26.8883   32.2493   41.5203 H   0  0  0  0  0  0  0  0  0  0  0  0
   28.0968   33.5170   41.0174 H   0  0  0  0  0  0  0  0  0  0  0  0
   27.6498   33.3222   42.7530 H   0  0  0  0  0  0  0  0  0  0  0  0
   28.0176   31.6617   39.4206 H   0  0  0  0  0  0  0  0  0  0  0  0
   28.8893   30.1466   37.6982 H   0  0  0  0  0  0  0  0  0  0  0  0
  1  2  1  0
  2  3  2  0
  2  4  1  0
  4  5  2  0
  5  6  1  0
  6  7  2  0
  7  8  1  0
  8  9  2  0
  9 10  1  0
 10 11  2  0
 11 12  1  0
 12 13  2  0
 13 14  1  0
  8 15  1  0
 15 16  1  0
 16 17  1  0
 17 18  1  0
 18 19  2  0
 19 20  1  0
 20 21  1  0
 19 22  1  0
 22 23  1  0
 23 24  1  0
 22 25  2  0
 25 26  1  0
 26 27  2  0
 13  4  1  0
 27 15  1  0
 12  7  1  0
 27 18  1  0
  1 28  1  0
  1 29  1  0
  9 30  1  0
 10 31  1  0
 11 32  1  0
 14 33  1  0
 14 34  1  0
 16 35  1  0
 16 36  1  0
 17 37  1  0
 17 38  1  0
 21 39  1  0
 21 40  1  0
 21 41  1  0
 24 42  1  0
 24 43  1  0
 24 44  1  0
 25 45  1  0
 26 46  1  0
M  END
$$$$
confid_5
     RDKit          3D

 46 49  0  0  0  0  0  0  0  0999 V2000
   24.5500   26.3900   36.2500 N   0  0  0  0  0  0  0  0  0  0  0  0
   25.6000   26.1300   35.4000 C   0  0  0  0  0  0  0  0  0  0  0  0
   25.4300   25.4300   34.4200 O   0  0  0  0  0  0  0  0  0  0  0  0
   26.9800   26.6300   35.7100 C   0  0  0  0  0  0  0  0  0  0  0  0
   27.3200   26.8200   36.9800 N   0  0  0  0  0  0  0  0  0  0  0  0
   28.4700   27.4000   37.3100 N   0  0  0  0  0  0  0  0  0  0  0  0
   29.4000   27.6300   36.3700 C   0  0  0  0  0  0  0  0  0  0  0  0
   30.6600   28.0500   36.8000 C   0  0  0  0  0  0  0  0  0  0  0  0
   31.5700   28.3600   35.7800 C   0  0  0  0  0  0  0  0  0  0  0  0
   31.3700   28.1000   34.4300 C   0  0  0  0  0  0  0  0  0  0  0  0
   30.1200   27.5900   34.0500 C   0  0  0  0  0  0  0  0  0  0  0  0
   29.1500   27.3400   35.0300 C   0  0  0  0  0  0  0  0  0  0  0  0
   27.8800   26.8900   34.6600 C   0  0  0  0  0  0  0  0  0  0  0  0
   27.4800   26.6100   33.3700 N   0  0  0  0  0  0  0  0  0  0  0  0
   30.9747   28.2614   38.1875 N   0  0  0  0  0  0  0  0  0  0  0  0
   31.0053   27.1891   39.1767 C   0  0  0  0  0  0  0  0  0  0  0  0
   31.7643   27.7590   40.3949 C   0  0  0  0  0  0  0  0  0  0  0  0
   32.1240   29.1569   39.9901 C   0  0  0  0  0  0  0  0  0  0  0  0
   32.7686   30.1813   40.7305 C   0  0  0  0  0  0  0  0  0  0  0  0
   33.2819   29.9922   42.0254 O   0  0  0  0  0  0  0  0  0  0  0  0
   33.5759   28.7508   42.6539 C   0  0  0  0  0  0  0  0  0  0  0  0
   32.8811   31.4674   40.1222 C   0  0  0  0  0  0  0  0  0  0  0  0
   33.4903   32.5788   40.7344 O   0  0  0  0  0  0  0  0  0  0  0  0
   34.0976   32.6129   42.0210 C   0  0  0  0  0  0  0  0  0  0  0  0
   32.3634   31.6762   38.8305 C   0  0  0  0  0  0  0  0  0  0  0  0
   31.7376   30.6456   38.1276 C   0  0  0  0  0  0  0  0  0  0  0  0
   31.6421   29.3918   38.7256 C   0  0  0  0  0  0  0  0  0  0  0  0
   24.6739   26.9931   37.0934 H   0  0  0  0  0  0  0  0  0  0  0  0
   23.6001   26.0040   36.0503 H   0  0  0  0  0  0  0  0  0  0  0  0
   32.5389   28.7504   36.0644 H   0  0  0  0  0  0  0  0  0  0  0  0
   32.1356   28.3152   33.6957 H   0  0  0  0  0  0  0  0  0  0  0  0
   29.9377   27.4168   32.9984 H   0  0  0  0  0  0  0  0  0  0  0  0
   28.1242   26.1386   32.6979 H   0  0  0  0  0  0  0  0  0  0  0  0
   26.5963   27.0150   32.9873 H   0  0  0  0  0  0  0  0  0  0  0  0
   29.9714   26.9005   39.4621 H   0  0  0  0  0  0  0  0  0  0  0  0
   31.5406   26.3062   38.7637 H   0  0  0  0  0  0  0  0  0  0  0  0
   31.0973   27.7735   41.2827 H   0  0  0  0  0  0  0  0  0  0  0  0
   32.6741   27.1531   40.5845 H   0  0  0  0  0  0  0  0  0  0  0  0
   34.1308   28.9521   43.5929 H   0  0  0  0  0  0  0  0  0  0  0  0
   34.2241   28.1316   41.9998 H   0  0  0  0  0  0  0  0  0  0  0  0
   32.6430   28.2197   42.9260 H   0  0  0  0  0  0  0  0  0  0  0  0
   33.3463   32.3904   42.8075 H   0  0  0  0  0  0  0  0  0  0  0  0
   34.4947   33.6325   42.2024 H   0  0  0  0  0  0  0  0  0  0  0  0
   34.9462   31.8983   42.0656 H   0  0  0  0  0  0  0  0  0  0  0  0
   32.4418   32.6544   38.3726 H   0  0  0  0  0  0  0  0  0  0  0  0
   31.3193   30.8324   37.1474 H   0  0  0  0  0  0  0  0  0  0  0  0
  1  2  1  0
  2  3  2  0
  2  4  1  0
  4  5  2  0
  5  6  1  0
  6  7  2  0
  7  8  1  0
  8  9  2  0
  9 10  1  0
 10 11  2  0
 11 12  1  0
 12 13  2  0
 13 14  1  0
  8 15  1  0
 15 16  1  0
 16 17  1  0
 17 18  1  0
 18 19  2  0
 19 20  1  0
 20 21  1  0
 19 22  1  0
 22 23  1  0
 23 24  1  0
 22 25  2  0
 25 26  1  0
 26 27  2  0
 13  4  1  0
 27 15  1  0
 12  7  1  0
 27 18  1  0
  1 28  1  0
  1 29  1  0
  9 30  1  0
 10 31  1  0
 11 32  1  0
 14 33  1  0
 14 34  1  0
 16 35  1  0
 16 36  1  0
 17 37  1  0
 17 38  1  0
 21 39  1  0
 21 40  1  0
 21 41  1  0
 24 42  1  0
 24 43  1  0
 24 44  1  0
 25 45  1  0
 26 46  1  0
M  END
$$$$
confid_6
     RDKit          3D

 46 49  0  0  0  0  0  0  0  0999 V2000
   24.5500   26.3900   36.2500 N   0  0  0  0  0  0  0  0  0  0  0  0
   25.6000   26.1300   35.4000 C   0  0  0  0  0  0  0  0  0  0  0  0
   25.4300   25.4300   34.4200 O   0  0  0  0  0  0  0  0  0  0  0  0
   26.9800   26.6300   35.7100 C   0  0  0  0  0  0  0  0  0  0  0  0
   27.3200   26.8200   36.9800 N   0  0  0  0  0  0  0  0  0  0  0  0
   28.4700   27.4000   37.3100 N   0  0  0  0  0  0  0  0  0  0  0  0
   29.4000   27.6300   36.3700 C   0  0  0  0  0  0  0  0  0  0  0  0
   30.6600   28.0500   36.8000 C   0  0  0  0  0  0  0  0  0  0  0  0
   31.5700   28.3600   35.7800 C   0  0  0  0  0  0  0  0  0  0  0  0
   31.3700   28.1000   34.4300 C   0  0  0  0  0  0  0  0  0  0  0  0
   30.1200   27.5900   34.0500 C   0  0  0  0  0  0  0  0  0  0  0  0
   29.1500   27.3400   35.0300 C   0  0  0  0  0  0  0  0  0  0  0  0
   27.8800   26.8900   34.6600 C   0  0  0  0  0  0  0  0  0  0  0  0
   27.4800   26.6100   33.3700 N   0  0  0  0  0  0  0  0  0  0  0  0
   30.9567   28.3170   38.1762 N   0  0  0  0  0  0  0  0  0  0  0  0
   30.5612   29.5436   38.8651 C   0  0  0  0  0  0  0  0  0  0  0  0
   31.4250   29.6025   40.1491 C   0  0  0  0  0  0  0  0  0  0  0  0
   32.2978   28.3947   40.0436 C   0  0  0  0  0  0  0  0  0  0  0  0
   33.2704   27.9517   40.9471 C   0  0  0  0  0  0  0  0  0  0  0  0
   33.4940   28.7300   42.0963 O   0  0  0  0  0  0  0  0  0  0  0  0
   34.3397   28.3858   43.1891 C   0  0  0  0  0  0  0  0  0  0  0  0
   33.9604   26.7409   40.6472 C   0  0  0  0  0  0  0  0  0  0  0  0
   34.9574   26.2683   41.5174 O   0  0  0  0  0  0  0  0  0  0  0  0
   35.6529   25.0363   41.3618 C   0  0  0  0  0  0  0  0  0  0  0  0
   33.6269   26.0287   39.4636 C   0  0  0  0  0  0  0  0  0  0  0  0
   32.6407   26.5059   38.5928 C   0  0  0  0  0  0  0  0  0  0  0  0
   32.0004   27.7003   38.9073 C   0  0  0  0  0  0  0  0  0  0  0  0
   23.6007   26.0031   36.0507 H   0  0  0  0  0  0  0  0  0  0  0  0
   24.6740   26.9907   37.0951 H   0  0  0  0  0  0  0  0  0  0  0  0
   32.5279   28.7744   36.0684 H   0  0  0  0  0  0  0  0  0  0  0  0
   32.1335   28.3200   33.6951 H   0  0  0  0  0  0  0  0  0  0  0  0
   29.9371   27.4177   32.9983 H   0  0  0  0  0  0  0  0  0  0  0  0
   26.5972   27.0162   32.9864 H   0  0  0  0  0  0  0  0  0  0  0  0
   28.1239   26.1370   32.6987 H   0  0  0  0  0  0  0  0  0  0  0  0
   29.4787   29.5082   39.1135 H   0  0  0  0  0  0  0  0  0  0  0  0
   30.7676   30.4272   38.2190 H   0  0  0  0  0  0  0  0  0  0  0  0
   32.0422   30.5274   40.1731 H   0  0  0  0  0  0  0  0  0  0  0  0
   30.7858   29.5341   41.0545 H   0  0  0  0  0  0  0  0  0  0  0  0
   34.0316   27.4090   43.6182 H   0  0  0  0  0  0  0  0  0  0  0  0
   35.4009   28.3580   42.8616 H   0  0  0  0  0  0  0  0  0  0  0  0
   34.2387   29.1582   43.9781 H   0  0  0  0  0  0  0  0  0  0  0  0
   36.2316   25.0361   40.4180 H   0  0  0  0  0  0  0  0  0  0  0  0
   34.9362   24.1915   41.3710 H   0  0  0  0  0  0  0  0  0  0  0  0
   36.3548   24.9105   42.2069 H   0  0  0  0  0  0  0  0  0  0  0  0
   34.1232   25.1023   39.2117 H   0  0  0  0  0  0  0  0  0  0  0  0
   32.3904   25.9577   37.6938 H   0  0  0  0  0  0  0  0  0  0  0  0
  1  2  1  0
  2  3  2  0
  2  4  1  0
  4  5  2  0
  5  6  1  0
  6  7  2  0
  7  8  1  0
  8  9  2  0
  9 10  1  0
 10 11  2  0
 11 12  1  0
 12 13  2  0
 13 14  1  0
  8 15  1  0
 15 16  1  0
 16 17  1  0
 17 18  1  0
 18 19  2  0
 19 20  1  0
 20 21  1  0
 19 22  1  0
 22 23  1  0
 23 24  1  0
 22 25  2  0
 25 26  1  0
 26 27  2  0
 13  4  1  0
 27 15  1  0
 12  7  1  0
 27 18  1  0
  1 28  1  0
  1 29  1  0
  9 30  1  0
 10 31  1  0
 11 32  1  0
 14 33  1  0
 14 34  1  0
 16 35  1  0
 16 36  1  0
 17 37  1  0
 17 38  1  0
 21 39  1  0
 21 40  1  0
 21 41  1  0
 24 42  1  0
 24 43  1  0
 24 44  1  0
 25 45  1  0
 26 46  1  0
M  END
$$$$
confid_7
     RDKit          3D

 46 49  0  0  0  0  0  0  0  0999 V2000
   24.5500   26.3900   36.2500 N   0  0  0  0  0  0  0  0  0  0  0  0
   25.6000   26.1300   35.4000 C   0  0  0  0  0  0  0  0  0  0  0  0
   25.4300   25.4300   34.4200 O   0  0  0  0  0  0  0  0  0  0  0  0
   26.9800   26.6300   35.7100 C   0  0  0  0  0  0  0  0  0  0  0  0
   27.3200   26.8200   36.9800 N   0  0  0  0  0  0  0  0  0  0  0  0
   28.4700   27.4000   37.3100 N   0  0  0  0  0  0  0  0  0  0  0  0
   29.4000   27.6300   36.3700 C   0  0  0  0  0  0  0  0  0  0  0  0
   30.6600   28.0500   36.8000 C   0  0  0  0  0  0  0  0  0  0  0  0
   31.5700   28.3600   35.7800 C   0  0  0  0  0  0  0  0  0  0  0  0
   31.3700   28.1000   34.4300 C   0  0  0  0  0  0  0  0  0  0  0  0
   30.1200   27.5900   34.0500 C   0  0  0  0  0  0  0  0  0  0  0  0
   29.1500   27.3400   35.0300 C   0  0  0  0  0  0  0  0  0  0  0  0
   27.8800   26.8900   34.6600 C   0  0  0  0  0  0  0  0  0  0  0  0
   27.4800   26.6100   33.3700 N   0  0  0  0  0  0  0  0  0  0  0  0
   30.9742   28.2614   38.1874 N   0  0  0  0  0  0  0  0  0  0  0  0
   31.0156   27.1867   39.1741 C   0  0  0  0  0  0  0  0  0  0  0  0
   31.7638   27.7621   40.3971 C   0  0  0  0  0  0  0  0  0  0  0  0
   32.1117   29.1626   39.9935 C   0  0  0  0  0  0  0  0  0  0  0  0
   32.7622   30.1883   40.7233 C   0  0  0  0  0  0  0  0  0  0  0  0
   33.2922   30.0376   42.0178 O   0  0  0  0  0  0  0  0  0  0  0  0
   33.4582   28.8193   42.7320 C   0  0  0  0  0  0  0  0  0  0  0  0
   32.8879   31.4579   40.1200 C   0  0  0  0  0  0  0  0  0  0  0  0
   33.5300   32.4750   40.8444 O   0  0  0  0  0  0  0  0  0  0  0  0
   33.7311   33.8018   40.3681 C   0  0  0  0  0  0  0  0  0  0  0  0
   32.3731   31.6797   38.8209 C   0  0  0  0  0  0  0  0  0  0  0  0
   31.7383   30.6486   38.1231 C   0  0  0  0  0  0  0  0  0  0  0  0
   31.6331   29.3960   38.7271 C   0  0  0  0  0  0  0  0  0  0  0  0
   24.6739   26.9931   37.0934 H   0  0  0  0  0  0  0  0  0  0  0  0
   23.6001   26.0039   36.0504 H   0  0  0  0  0  0  0  0  0  0  0  0
   32.5393   28.7493   36.0646 H   0  0  0  0  0  0  0  0  0  0  0  0
   32.1375   28.3098   33.6962 H   0  0  0  0  0  0  0  0  0  0  0  0
   29.9369   27.3911   33.0018 H   0  0  0  0  0  0  0  0  0  0  0  0
   27.5828   27.3393   32.6300 H   0  0  0  0  0  0  0  0  0  0  0  0
   27.4181   25.6173   33.0515 H   0  0  0  0  0  0  0  0  0  0  0  0
   31.5635   26.3120   38.7602 H   0  0  0  0  0  0  0  0  0  0  0  0
   29.9846   26.8837   39.4550 H   0  0  0  0  0  0  0  0  0  0  0  0
   31.0912   27.7688   41.2803 H   0  0  0  0  0  0  0  0  0  0  0  0
   32.6790   27.1660   40.5918 H   0  0  0  0  0  0  0  0  0  0  0  0
   32.4739   28.3827   42.9922 H   0  0  0  0  0  0  0  0  0  0  0  0
   34.0788   28.1106   42.1464 H   0  0  0  0  0  0  0  0  0  0  0  0
   33.9911   29.0343   43.6807 H   0  0  0  0  0  0  0  0  0  0  0  0
   34.2642   34.3884   41.1441 H   0  0  0  0  0  0  0  0  0  0  0  0
   32.7531   34.2871   40.1653 H   0  0  0  0  0  0  0  0  0  0  0  0
   34.3502   33.7869   39.4463 H   0  0  0  0  0  0  0  0  0  0  0  0
   32.4528   32.6481   38.3468 H   0  0  0  0  0  0  0  0  0  0  0  0
   31.3243   30.8325   37.1406 H   0  0  0  0  0  0  0  0  0  0  0  0
  1  2  1  0
  2  3  2  0
  2  4  1  0
  4  5  2  0
  5  6  1  0
  6  7  2  0
  7  8  1  0
  8  9  2  0
  9 10  1  0
 10 11  2  0
 11 12  1  0
 12 13  2  0
 13 14  1  0
  8 15  1  0
 15 16  1  0
 16 17  1  0
 17 18  1  0
 18 19  2  0
 19 20  1  0
 20 21  1  0
 19 22  1  0
 22 23  1  0
 23 24  1  0
 22 25  2  0
 25 26  1  0
 26 27  2  0
 13  4  1  0
 27 15  1  0
 12  7  1  0
 27 18  1  0
  1 28  1  0
  1 29  1  0
  9 30  1  0
 10 31  1  0
 11 32  1  0
 14 33  1  0
 14 34  1  0
 16 35  1  0
 16 36  1  0
 17 37  1  0
 17 38  1  0
 21 39  1  0
 21 40  1  0
 21 41  1  0
 24 42  1  0
 24 43  1  0
 24 44  1  0
 25 45  1  0
 26 46  1  0
M  END
$$$$
