confid_0
     RDKit          3D

 51 55  0  0  0  0  0  0  0  0999 V2000
   24.6900   26.1200   35.5300 N   0  0  0  0  0  0  0  0  0  0  0  0
   25.6600   25.6700   34.6600 C   0  0  0  0  0  0  0  0  0  0  0  0
   25.2400   25.0100   33.7200 O   0  0  0  0  0  0  0  0  0  0  0  0
   27.0300   26.2200   34.8800 C   0  0  0  0  0  0  0  0  0  0  0  0
   27.3500   26.7300   36.0700 N   0  0  0  0  0  0  0  0  0  0  0  0
   28.5700   27.1800   36.3300 N   0  0  0  0  0  0  0  0  0  0  0  0
   29.5300   27.1100   35.3900 C   0  0  0  0  0  0  0  0  0  0  0  0
   30.8300   27.5700   35.6500 C   0  0  0  0  0  0  0  0  0  0  0  0
   31.8500   27.5400   34.6900 C   0  0  0  0  0  0  0  0  0  0  0  0
   31.5100   27.1200   33.4000 C   0  0  0  0  0  0  0  0  0  0  0  0
   30.2200   26.6300   33.1100 C   0  0  0  0  0  0  0  0  0  0  0  0
   29.2400   26.6600   34.1000 C   0  0  0  0  0  0  0  0  0  0  0  0
   27.9300   26.2600   33.8100 C   0  0  0  0  0  0  0  0  0  0  0  0
   27.5200   25.7100   32.6100 N   0  0  0  0  0  0  0  0  0  0  0  0
   23.3153   26.3482   35.1647 C   0  0  0  0  0  0  0  0  0  0  0  0
   23.0159   26.5600   33.9134 N   0  0  0  0  0  0  0  0  0  0  0  0
   21.7184   26.7696   33.3397 C   0  0  0  0  0  0  0  0  0  0  0  0
   20.7217   25.9212   33.5657 C   0  0  0  0  0  0  0  0  0  0  0  0
   19.4051   25.5427   32.9554 C   0  0  0  0  0  0  0  0  0  0  0  0
   19.2283   24.4048   33.7369 O   0  0  0  0  0  0  0  0  0  0  0  0
   20.4123   24.7131   34.4035 C   0  0  0  0  0  0  0  0  0  0  0  0
   20.1146   25.0247   35.8811 C   0  0  0  0  0  0  0  0  0  0  0  0
   21.0389   26.0206   36.5084 C   0  0  0  0  0  0  0  0  0  0  0  0
   22.3095   26.5044   36.2356 C   0  0  0  0  0  0  0  0  0  0  0  0
   22.1963   27.2982   37.4326 C   0  0  0  0  0  0  0  0  0  0  0  0
   20.9065   26.8336   37.7231 N   0  0  0  0  0  0  0  0  0  0  0  0
   19.8876   27.0449   38.7383 C   0  0  0  0  0  0  0  0  0  0  0  0
   22.1973   28.8066   37.1378 C   0  0  0  0  0  0  0  0  0  0  0  0
   23.1831   26.9142   38.5476 C   0  0  0  0  0  0  0  0  0  0  0  0
   24.9471   26.2135   36.5350 H   0  0  0  0  0  0  0  0  0  0  0  0
   31.0673   27.9414   36.6393 H   0  0  0  0  0  0  0  0  0  0  0  0
   32.8484   27.8885   34.9208 H   0  0  0  0  0  0  0  0  0  0  0  0
   32.2637   27.1262   32.6233 H   0  0  0  0  0  0  0  0  0  0  0  0
   30.0101   26.3030   32.1005 H   0  0  0  0  0  0  0  0  0  0  0  0
   26.6933   26.1013   32.1058 H   0  0  0  0  0  0  0  0  0  0  0  0
   28.1294   25.0387   32.0924 H   0  0  0  0  0  0  0  0  0  0  0  0
   21.6265   27.4491   32.5028 H   0  0  0  0  0  0  0  0  0  0  0  0
   19.5083   25.2834   31.8798 H   0  0  0  0  0  0  0  0  0  0  0  0
   18.6150   26.3006   33.1522 H   0  0  0  0  0  0  0  0  0  0  0  0
   21.1797   23.9181   34.2717 H   0  0  0  0  0  0  0  0  0  0  0  0
   19.0805   25.4222   35.9834 H   0  0  0  0  0  0  0  0  0  0  0  0
   20.1667   24.0801   36.4633 H   0  0  0  0  0  0  0  0  0  0  0  0
   18.9606   27.4186   38.2569 H   0  0  0  0  0  0  0  0  0  0  0  0
   20.2431   27.7910   39.4796 H   0  0  0  0  0  0  0  0  0  0  0  0
   19.6735   26.0852   39.2527 H   0  0  0  0  0  0  0  0  0  0  0  0
   21.4424   29.0587   36.3607 H   0  0  0  0  0  0  0  0  0  0  0  0
   23.1978   29.1228   36.7723 H   0  0  0  0  0  0  0  0  0  0  0  0
   21.9571   29.3768   38.0604 H   0  0  0  0  0  0  0  0  0  0  0  0
   23.2568   25.8096   38.6530 H   0  0  0  0  0  0  0  0  0  0  0  0
   22.8396   27.3380   39.5156 H   0  0  0  0  0  0  0  0  0  0  0  0
   24.1897   27.3321   38.3403 H   0  0  0  0  0  0  0  0  0  0  0  0
  1  2  1  0
  2  3  2  0
  2  4  1  0
  4  5  2  0
  5  6  1  0
  6  7  2  0
  7  8  1  0
  8  9  2  0
  9 10  1  0
 10 11  2  0
 11 12  1  0
 12 13  2  0
 13 14  1  0
  1 15  1  0
 15 16  2  0
 16 17  1  0
 17 18  2  0
 18 19  1  0
 19 20  1  0
 20 21  1  0
 21 22  1  0
 22 23  1  0
 23 24  2  0
 24 25  1  0
 25 26  1  0
 26 27  1  0
 25 28  1  0
 25 29  1  0
 13  4  1  0
 24 15  1  0
 12  7  1  0
 21 18  1  0
 26 23  1  0
  1 30  1  0
  8 31  1  0
  9 32  1  0
 10 33  1  0
 11 34  1  0
 14 35  1  0
 14 36  1  0
 17 37  1  0
 19 38  1  0
 19 39  1  0
 21 40  1  0
 22 41  1  0
 22 42  1  0
 27 43  1  0
 27 44  1  0
 27 45  1  0
 28 46  1  0
 28 47  1  0
 28 48  1  0
 29 49  1  0
 29 50  1  0
 29 51  1  0
M  END
$$$$
