confid_0
     RDKit          3D

 45 49  0  0  0  0  0  0  0  0999 V2000
   24.5700   26.8800   35.5900 N   0  0  0  0  0  0  0  0  0  0  0  0
   25.5000   26.4000   34.6900 C   0  0  0  0  0  0  0  0  0  0  0  0
   25.1700   25.5200   33.9100 O   0  0  0  0  0  0  0  0  0  0  0  0
   26.8400   27.0200   34.7400 C   0  0  0  0  0  0  0  0  0  0  0  0
   27.3800   27.2800   35.9400 N   0  0  0  0  0  0  0  0  0  0  0  0
   28.6200   27.7400   36.0300 N   0  0  0  0  0  0  0  0  0  0  0  0
   29.3800   28.0000   34.9600 C   0  0  0  0  0  0  0  0  0  0  0  0
   30.6700   28.5000   35.1300 C   0  0  0  0  0  0  0  0  0  0  0  0
   31.5400   28.6100   34.0300 C   0  0  0  0  0  0  0  0  0  0  0  0
   31.0900   28.2200   32.7700 C   0  0  0  0  0  0  0  0  0  0  0  0
   29.8000   27.7000   32.6000 C   0  0  0  0  0  0  0  0  0  0  0  0
   28.9600   27.5500   33.7100 C   0  0  0  0  0  0  0  0  0  0  0  0
   27.6600   27.0300   33.5900 C   0  0  0  0  0  0  0  0  0  0  0  0
   27.1600   26.7400   32.3400 N   0  0  0  0  0  0  0  0  0  0  0  0
   23.1495   26.6181   35.5463 C   0  0  0  0  0  0  0  0  0  0  0  0
   22.6480   26.0484   34.4776 N   0  0  0  0  0  0  0  0  0  0  0  0
   21.2703   25.8347   34.1638 C   0  0  0  0  0  0  0  0  0  0  0  0
   20.4433   26.8732   33.9997 C   0  0  0  0  0  0  0  0  0  0  0  0
   20.8978   28.2354   34.4042 C   0  0  0  0  0  0  0  0  0  0  0  0
   20.4191   28.2769   35.7691 N   0  0  0  0  0  0  0  0  0  0  0  0
   19.1456   27.6228   35.6731 C   0  0  0  0  0  0  0  0  0  0  0  0
   18.2461   27.7329   36.5481 O   0  0  0  0  0  0  0  0  0  0  0  0
   19.0300   26.7518   34.4715 C   0  0  0  0  0  0  0  0  0  0  0  0
   21.2504   27.8847   36.8831 C   0  0  0  0  0  0  0  0  0  0  0  0
   20.8214   28.3065   38.1537 C   0  0  0  0  0  0  0  0  0  0  0  0
   21.4030   27.8118   39.3162 C   0  0  0  0  0  0  0  0  0  0  0  0
   20.9558   28.2254   40.5274 F   0  0  0  0  0  0  0  0  0  0  0  0
   22.4204   26.8705   39.2359 C   0  0  0  0  0  0  0  0  0  0  0  0
   22.8956   26.4516   37.9941 C   0  0  0  0  0  0  0  0  0  0  0  0
   22.3569   26.9607   36.7885 C   0  0  0  0  0  0  0  0  0  0  0  0
   23.9076   25.5451   37.9703 F   0  0  0  0  0  0  0  0  0  0  0  0
   24.8943   27.5305   36.3419 H   0  0  0  0  0  0  0  0  0  0  0  0
   31.0179   28.7884   36.1145 H   0  0  0  0  0  0  0  0  0  0  0  0
   32.5424   28.9969   34.1598 H   0  0  0  0  0  0  0  0  0  0  0  0
   31.7486   28.3096   31.9157 H   0  0  0  0  0  0  0  0  0  0  0  0
   29.5077   27.3813   31.6086 H   0  0  0  0  0  0  0  0  0  0  0  0
   27.2454   27.4247   31.5562 H   0  0  0  0  0  0  0  0  0  0  0  0
   26.7443   25.8079   32.1269 H   0  0  0  0  0  0  0  0  0  0  0  0
   20.9019   24.8201   34.0754 H   0  0  0  0  0  0  0  0  0  0  0  0
   20.3651   29.0021   33.7961 H   0  0  0  0  0  0  0  0  0  0  0  0
   21.9790   28.4600   34.3078 H   0  0  0  0  0  0  0  0  0  0  0  0
   18.7414   25.7155   34.7543 H   0  0  0  0  0  0  0  0  0  0  0  0
   18.3239   27.1894   33.7343 H   0  0  0  0  0  0  0  0  0  0  0  0
   19.9996   29.0063   38.2389 H   0  0  0  0  0  0  0  0  0  0  0  0
   22.8577   26.4728   40.1429 H   0  0  0  0  0  0  0  0  0  0  0  0
  1  2  1  0
  2  3  2  0
  2  4  1  0
  4  5  2  0
  5  6  1  0
  6  7  2  0
  7  8  1  0
  8  9  2  0
  9 10  1  0
 10 11  2  0
 11 12  1  0
 12 13  2  0
 13 14  1  0
  1 15  1  0
 15 16  2  0
 16 17  1  0
 17 18  2  0
 18 19  1  0
 19 20  1  0
 20 21  1  0
 21 22  2  0
 21 23  1  0
 20 24  1  0
 24 25  2  0
 25 26  1  0
 26 27  1  0
 26 28  2  0
 28 29  1  0
 29 30  2  0
 29 31  1  0
 13  4  1  0
 30 15  1  0
 12  7  1  0
 23 18  1  0
 30 24  1  0
  1 32  1  0
  8 33  1  0
  9 34  1  0
 10 35  1  0
 11 36  1  0
 14 37  1  0
 14 38  1  0
 17 39  1  0
 19 40  1  0
 19 41  1  0
 23 42  1  0
 23 43  1  0
 25 44  1  0
 28 45  1  0
M  END
$$$$
confid_1
     RDKit          3D

 45 49  0  0  0  0  0  0  0  0999 V2000
   24.5700   26.8800   35.5900 N   0  0  0  0  0  0  0  0  0  0  0  0
   25.5000   26.4000   34.6900 C   0  0  0  0  0  0  0  0  0  0  0  0
   25.1700   25.5200   33.9100 O   0  0  0  0  0  0  0  0  0  0  0  0
   26.8400   27.0200   34.7400 C   0  0  0  0  0  0  0  0  0  0  0  0
   27.3800   27.2800   35.9400 N   0  0  0  0  0  0  0  0  0  0  0  0
   28.6200   27.7400   36.0300 N   0  0  0  0  0  0  0  0  0  0  0  0
   29.3800   28.0000   34.9600 C   0  0  0  0  0  0  0  0  0  0  0  0
   30.6700   28.5000   35.1300 C   0  0  0  0  0  0  0  0  0  0  0  0
   31.5400   28.6100   34.0300 C   0  0  0  0  0  0  0  0  0  0  0  0
   31.0900   28.2200   32.7700 C   0  0  0  0  0  0  0  0  0  0  0  0
   29.8000   27.7000   32.6000 C   0  0  0  0  0  0  0  0  0  0  0  0
   28.9600   27.5500   33.7100 C   0  0  0  0  0  0  0  0  0  0  0  0
   27.6600   27.0300   33.5900 C   0  0  0  0  0  0  0  0  0  0  0  0
   27.1600   26.7400   32.3400 N   0  0  0  0  0  0  0  0  0  0  0  0
   23.3414   26.2125   35.9490 C   0  0  0  0  0  0  0  0  0  0  0  0
   23.1967   24.9517   35.6213 N   0  0  0  0  0  0  0  0  0  0  0  0
   22.1385   24.0660   35.9926 C   0  0  0  0  0  0  0  0  0  0  0  0
   21.9304   23.7583   37.2775 C   0  0  0  0  0  0  0  0  0  0  0  0
   22.6333   24.5401   38.3358 C   0  0  0  0  0  0  0  0  0  0  0  0
   21.6525   25.5722   38.5937 N   0  0  0  0  0  0  0  0  0  0  0  0
   20.4140   24.8516   38.5233 C   0  0  0  0  0  0  0  0  0  0  0  0
   19.3366   25.2824   39.0136 O   0  0  0  0  0  0  0  0  0  0  0  0
   20.5260   23.5799   37.7583 C   0  0  0  0  0  0  0  0  0  0  0  0
   21.6851   26.8450   37.9128 C   0  0  0  0  0  0  0  0  0  0  0  0
   20.9316   27.8787   38.4966 C   0  0  0  0  0  0  0  0  0  0  0  0
   20.7022   29.0755   37.8263 C   0  0  0  0  0  0  0  0  0  0  0  0
   19.9563   30.0469   38.4082 F   0  0  0  0  0  0  0  0  0  0  0  0
   21.2083   29.2616   36.5470 C   0  0  0  0  0  0  0  0  0  0  0  0
   21.9869   28.2730   35.9473 C   0  0  0  0  0  0  0  0  0  0  0  0
   22.2767   27.0578   36.6122 C   0  0  0  0  0  0  0  0  0  0  0  0
   22.4746   28.5127   34.7018 F   0  0  0  0  0  0  0  0  0  0  0  0
   24.7652   27.7954   36.0577 H   0  0  0  0  0  0  0  0  0  0  0  0
   31.0178   28.7888   36.1143 H   0  0  0  0  0  0  0  0  0  0  0  0
   32.5416   28.9991   34.1593 H   0  0  0  0  0  0  0  0  0  0  0  0
   31.7454   28.3188   31.9142 H   0  0  0  0  0  0  0  0  0  0  0  0
   29.5013   27.4243   31.5992 H   0  0  0  0  0  0  0  0  0  0  0  0
   26.1711   26.9656   32.0920 H   0  0  0  0  0  0  0  0  0  0  0  0
   27.7096   26.1832   31.6493 H   0  0  0  0  0  0  0  0  0  0  0  0
   21.4969   23.6602   35.2205 H   0  0  0  0  0  0  0  0  0  0  0  0
   23.6393   24.9374   38.0917 H   0  0  0  0  0  0  0  0  0  0  0  0
   22.7591   23.9078   39.2447 H   0  0  0  0  0  0  0  0  0  0  0  0
   19.7760   23.5369   36.9380 H   0  0  0  0  0  0  0  0  0  0  0  0
   20.4449   22.7042   38.4367 H   0  0  0  0  0  0  0  0  0  0  0  0
   20.4874   27.7354   39.4741 H   0  0  0  0  0  0  0  0  0  0  0  0
   21.0098   30.1859   36.0194 H   0  0  0  0  0  0  0  0  0  0  0  0
  1  2  1  0
  2  3  2  0
  2  4  1  0
  4  5  2  0
  5  6  1  0
  6  7  2  0
  7  8  1  0
  8  9  2  0
  9 10  1  0
 10 11  2  0
 11 12  1  0
 12 13  2  0
 13 14  1  0
  1 15  1  0
 15 16  2  0
 16 17  1  0
 17 18  2  0
 18 19  1  0
 19 20  1  0
 20 21  1  0
 21 22  2  0
 21 23  1  0
 20 24  1  0
 24 25  2  0
 25 26  1  0
 26 27  1  0
 26 28  2  0
 28 29  1  0
 29 30  2  0
 29 31  1  0
 13  4  1  0
 30 15  1  0
 12  7  1  0
 23 18  1  0
 30 24  1  0
  1 32  1  0
  8 33  1  0
  9 34  1  0
 10 35  1  0
 11 36  1  0
 14 37  1  0
 14 38  1  0
 17 39  1  0
 19 40  1  0
 19 41  1  0
 23 42  1  0
 23 43  1  0
 25 44  1  0
 28 45  1  0
M  END
$$$$
confid_2
     RDKit          3D

 45 49  0  0  0  0  0  0  0  0999 V2000
   24.5700   26.8800   35.5900 N   0  0  0  0  0  0  0  0  0  0  0  0
   25.5000   26.4000   34.6900 C   0  0  0  0  0  0  0  0  0  0  0  0
   25.1700   25.5200   33.9100 O   0  0  0  0  0  0  0  0  0  0  0  0
   26.8400   27.0200   34.7400 C   0  0  0  0  0  0  0  0  0  0  0  0
   27.3800   27.2800   35.9400 N   0  0  0  0  0  0  0  0  0  0  0  0
   28.6200   27.7400   36.0300 N   0  0  0  0  0  0  0  0  0  0  0  0
   29.3800   28.0000   34.9600 C   0  0  0  0  0  0  0  0  0  0  0  0
   30.6700   28.5000   35.1300 C   0  0  0  0  0  0  0  0  0  0  0  0
   31.5400   28.6100   34.0300 C   0  0  0  0  0  0  0  0  0  0  0  0
   31.0900   28.2200   32.7700 C   0  0  0  0  0  0  0  0  0  0  0  0
   29.8000   27.7000   32.6000 C   0  0  0  0  0  0  0  0  0  0  0  0
   28.9600   27.5500   33.7100 C   0  0  0  0  0  0  0  0  0  0  0  0
   27.6600   27.0300   33.5900 C   0  0  0  0  0  0  0  0  0  0  0  0
   27.1600   26.7400   32.3400 N   0  0  0  0  0  0  0  0  0  0  0  0
   23.2797   26.2846   35.8306 C   0  0  0  0  0  0  0  0  0  0  0  0
   23.1399   24.9994   35.6178 N   0  0  0  0  0  0  0  0  0  0  0  0
   22.0026   24.1844   35.9080 C   0  0  0  0  0  0  0  0  0  0  0  0
   21.5786   24.0326   37.1678 C   0  0  0  0  0  0  0  0  0  0  0  0
   22.1403   24.9080   38.2367 C   0  0  0  0  0  0  0  0  0  0  0  0
   21.1744   25.9852   38.2279 N   0  0  0  0  0  0  0  0  0  0  0  0
   19.9337   25.2896   38.0426 C   0  0  0  0  0  0  0  0  0  0  0  0
   18.8128   25.7925   38.3202 O   0  0  0  0  0  0  0  0  0  0  0  0
   20.1093   23.9439   37.4320 C   0  0  0  0  0  0  0  0  0  0  0  0
   21.3596   27.1709   37.4244 C   0  0  0  0  0  0  0  0  0  0  0  0
   20.5583   28.2774   37.7582 C   0  0  0  0  0  0  0  0  0  0  0  0
   20.4824   29.3934   36.9307 C   0  0  0  0  0  0  0  0  0  0  0  0
   19.6870   30.4384   37.2713 F   0  0  0  0  0  0  0  0  0  0  0  0
   21.1954   29.4236   35.7397 C   0  0  0  0  0  0  0  0  0  0  0  0
   22.0251   28.3602   35.3894 C   0  0  0  0  0  0  0  0  0  0  0  0
   22.1603   27.2235   36.2227 C   0  0  0  0  0  0  0  0  0  0  0  0
   22.7135   28.4478   34.2207 F   0  0  0  0  0  0  0  0  0  0  0  0
   24.7723   27.7817   36.0816 H   0  0  0  0  0  0  0  0  0  0  0  0
   31.0178   28.7888   36.1143 H   0  0  0  0  0  0  0  0  0  0  0  0
   32.5416   28.9993   34.1593 H   0  0  0  0  0  0  0  0  0  0  0  0
   31.7456   28.3189   31.9143 H   0  0  0  0  0  0  0  0  0  0  0  0
   29.5014   27.4246   31.5992 H   0  0  0  0  0  0  0  0  0  0  0  0
   27.7103   26.1859   31.6478 H   0  0  0  0  0  0  0  0  0  0  0  0
   26.1700   26.9613   32.0938 H   0  0  0  0  0  0  0  0  0  0  0  0
   21.4768   23.7060   35.0903 H   0  0  0  0  0  0  0  0  0  0  0  0
   22.0987   24.3753   39.2143 H   0  0  0  0  0  0  0  0  0  0  0  0
   23.1875   25.2525   38.1155 H   0  0  0  0  0  0  0  0  0  0  0  0
   19.4966   23.8401   36.5094 H   0  0  0  0  0  0  0  0  0  0  0  0
   19.8830   23.1442   38.1696 H   0  0  0  0  0  0  0  0  0  0  0  0
   19.9538   28.2540   38.6570 H   0  0  0  0  0  0  0  0  0  0  0  0
   21.1147   30.2828   35.0848 H   0  0  0  0  0  0  0  0  0  0  0  0
  1  2  1  0
  2  3  2  0
  2  4  1  0
  4  5  2  0
  5  6  1  0
  6  7  2  0
  7  8  1  0
  8  9  2  0
  9 10  1  0
 10 11  2  0
 11 12  1  0
 12 13  2  0
 13 14  1  0
  1 15  1  0
 15 16  2  0
 16 17  1  0
 17 18  2  0
 18 19  1  0
 19 20  1  0
 20 21  1  0
 21 22  2  0
 21 23  1  0
 20 24  1  0
 24 25  2  0
 25 26  1  0
 26 27  1  0
 26 28  2  0
 28 29  1  0
 29 30  2  0
 29 31  1  0
 13  4  1  0
 30 15  1  0
 12  7  1  0
 23 18  1  0
 30 24  1  0
  1 32  1  0
  8 33  1  0
  9 34  1  0
 10 35  1  0
 11 36  1  0
 14 37  1  0
 14 38  1  0
 17 39  1  0
 19 40  1  0
 19 41  1  0
 23 42  1  0
 23 43  1  0
 25 44  1  0
 28 45  1  0
M  END
$$$$
confid_3
     RDKit          3D

 45 49  0  0  0  0  0  0  0  0999 V2000
   24.5700   26.8800   35.5900 N   0  0  0  0  0  0  0  0  0  0  0  0
   25.5000   26.4000   34.6900 C   0  0  0  0  0  0  0  0  0  0  0  0
   25.1700   25.5200   33.9100 O   0  0  0  0  0  0  0  0  0  0  0  0
   26.8400   27.0200   34.7400 C   0  0  0  0  0  0  0  0  0  0  0  0
   27.3800   27.2800   35.9400 N   0  0  0  0  0  0  0  0  0  0  0  0
   28.6200   27.7400   36.0300 N   0  0  0  0  0  0  0  0  0  0  0  0
   29.3800   28.0000   34.9600 C   0  0  0  0  0  0  0  0  0  0  0  0
   30.6700   28.5000   35.1300 C   0  0  0  0  0  0  0  0  0  0  0  0
   31.5400   28.6100   34.0300 C   0  0  0  0  0  0  0  0  0  0  0  0
   31.0900   28.2200   32.7700 C   0  0  0  0  0  0  0  0  0  0  0  0
   29.8000   27.7000   32.6000 C   0  0  0  0  0  0  0  0  0  0  0  0
   28.9600   27.5500   33.7100 C   0  0  0  0  0  0  0  0  0  0  0  0
   27.6600   27.0300   33.5900 C   0  0  0  0  0  0  0  0  0  0  0  0
   27.1600   26.7400   32.3400 N   0  0  0  0  0  0  0  0  0  0  0  0
   23.1990   26.4341   35.6954 C   0  0  0  0  0  0  0  0  0  0  0  0
   22.6691   25.7904   34.6830 N   0  0  0  0  0  0  0  0  0  0  0  0
   21.3096   25.3815   34.5170 C   0  0  0  0  0  0  0  0  0  0  0  0
   20.3311   26.2910   34.4514 C   0  0  0  0  0  0  0  0  0  0  0  0
   20.6276   27.7083   34.8135 C   0  0  0  0  0  0  0  0  0  0  0  0
   20.2982   27.6921   36.2224 N   0  0  0  0  0  0  0  0  0  0  0  0
   19.1276   26.8621   36.2598 C   0  0  0  0  0  0  0  0  0  0  0  0
   18.3216   26.8500   37.2283 O   0  0  0  0  0  0  0  0  0  0  0  0
   19.0089   25.9712   35.0725 C   0  0  0  0  0  0  0  0  0  0  0  0
   21.2932   27.4339   37.2378 C   0  0  0  0  0  0  0  0  0  0  0  0
   20.9490   27.8039   38.5500 C   0  0  0  0  0  0  0  0  0  0  0  0
   21.7209   27.4117   39.6399 C   0  0  0  0  0  0  0  0  0  0  0  0
   21.3516   27.7649   40.8963 F   0  0  0  0  0  0  0  0  0  0  0  0
   22.8504   26.6272   39.4440 C   0  0  0  0  0  0  0  0  0  0  0  0
   23.2416   26.2662   38.1560 C   0  0  0  0  0  0  0  0  0  0  0  0
   22.5059   26.6788   37.0182 C   0  0  0  0  0  0  0  0  0  0  0  0
   24.3636   25.5109   38.0182 F   0  0  0  0  0  0  0  0  0  0  0  0
   24.8684   27.6178   36.2690 H   0  0  0  0  0  0  0  0  0  0  0  0
   31.0177   28.7889   36.1142 H   0  0  0  0  0  0  0  0  0  0  0  0
   32.5414   28.9991   34.1593 H   0  0  0  0  0  0  0  0  0  0  0  0
   31.7454   28.3188   31.9144 H   0  0  0  0  0  0  0  0  0  0  0  0
   29.5013   27.4238   31.5994 H   0  0  0  0  0  0  0  0  0  0  0  0
   27.7088   26.1807   31.6509 H   0  0  0  0  0  0  0  0  0  0  0  0
   26.1713   26.9677   32.0912 H   0  0  0  0  0  0  0  0  0  0  0  0
   21.0816   24.3244   34.4560 H   0  0  0  0  0  0  0  0  0  0  0  0
   19.9249   28.3847   34.2735 H   0  0  0  0  0  0  0  0  0  0  0  0
   21.6493   28.0857   34.6030 H   0  0  0  0  0  0  0  0  0  0  0  0
   18.9053   24.9055   35.3762 H   0  0  0  0  0  0  0  0  0  0  0  0
   18.1735   26.2957   34.4165 H   0  0  0  0  0  0  0  0  0  0  0  0
   20.0456   28.3752   38.7291 H   0  0  0  0  0  0  0  0  0  0  0  0
   23.4353   26.3041   40.2963 H   0  0  0  0  0  0  0  0  0  0  0  0
  1  2  1  0
  2  3  2  0
  2  4  1  0
  4  5  2  0
  5  6  1  0
  6  7  2  0
  7  8  1  0
  8  9  2  0
  9 10  1  0
 10 11  2  0
 11 12  1  0
 12 13  2  0
 13 14  1  0
  1 15  1  0
 15 16  2  0
 16 17  1  0
 17 18  2  0
 18 19  1  0
 19 20  1  0
 20 21  1  0
 21 22  2  0
 21 23  1  0
 20 24  1  0
 24 25  2  0
 25 26  1  0
 26 27  1  0
 26 28  2  0
 28 29  1  0
 29 30  2  0
 29 31  1  0
 13  4  1  0
 30 15  1  0
 12  7  1  0
 23 18  1  0
 30 24  1  0
  1 32  1  0
  8 33  1  0
  9 34  1  0
 10 35  1  0
 11 36  1  0
 14 37  1  0
 14 38  1  0
 17 39  1  0
 19 40  1  0
 19 41  1  0
 23 42  1  0
 23 43  1  0
 25 44  1  0
 28 45  1  0
M  END
$$$$
confid_4
     RDKit          3D

 45 49  0  0  0  0  0  0  0  0999 V2000
   24.5700   26.8800   35.5900 N   0  0  0  0  0  0  0  0  0  0  0  0
   25.5000   26.4000   34.6900 C   0  0  0  0  0  0  0  0  0  0  0  0
   25.1700   25.5200   33.9100 O   0  0  0  0  0  0  0  0  0  0  0  0
   26.8400   27.0200   34.7400 C   0  0  0  0  0  0  0  0  0  0  0  0
   27.3800   27.2800   35.9400 N   0  0  0  0  0  0  0  0  0  0  0  0
   28.6200   27.7400   36.0300 N   0  0  0  0  0  0  0  0  0  0  0  0
   29.3800   28.0000   34.9600 C   0  0  0  0  0  0  0  0  0  0  0  0
   30.6700   28.5000   35.1300 C   0  0  0  0  0  0  0  0  0  0  0  0
   31.5400   28.6100   34.0300 C   0  0  0  0  0  0  0  0  0  0  0  0
   31.0900   28.2200   32.7700 C   0  0  0  0  0  0  0  0  0  0  0  0
   29.8000   27.7000   32.6000 C   0  0  0  0  0  0  0  0  0  0  0  0
   28.9600   27.5500   33.7100 C   0  0  0  0  0  0  0  0  0  0  0  0
   27.6600   27.0300   33.5900 C   0  0  0  0  0  0  0  0  0  0  0  0
   27.1600   26.7400   32.3400 N   0  0  0  0  0  0  0  0  0  0  0  0
   23.1761   26.5529   35.4918 C   0  0  0  0  0  0  0  0  0  0  0  0
   22.5864   26.8038   34.3508 N   0  0  0  0  0  0  0  0  0  0  0  0
   21.2002   26.6647   34.0296 C   0  0  0  0  0  0  0  0  0  0  0  0
   20.2751   27.3772   34.6829 C   0  0  0  0  0  0  0  0  0  0  0  0
   20.6537   28.1083   35.9287 C   0  0  0  0  0  0  0  0  0  0  0  0
   20.3680   27.0921   36.9196 N   0  0  0  0  0  0  0  0  0  0  0  0
   19.1616   26.4937   36.4236 C   0  0  0  0  0  0  0  0  0  0  0  0
   18.3872   25.8009   37.1355 O   0  0  0  0  0  0  0  0  0  0  0  0
   18.9550   26.7321   34.9700 C   0  0  0  0  0  0  0  0  0  0  0  0
   21.3880   26.1955   37.4093 C   0  0  0  0  0  0  0  0  0  0  0  0
   21.1007   25.5309   38.6181 C   0  0  0  0  0  0  0  0  0  0  0  0
   21.8937   24.4817   39.0694 C   0  0  0  0  0  0  0  0  0  0  0  0
   21.5985   23.8710   40.2394 F   0  0  0  0  0  0  0  0  0  0  0  0
   22.9619   24.0393   38.3064 C   0  0  0  0  0  0  0  0  0  0  0  0
   23.2947   24.6954   37.1213 C   0  0  0  0  0  0  0  0  0  0  0  0
   22.5544   25.8089   36.6562 C   0  0  0  0  0  0  0  0  0  0  0  0
   24.3596   24.2348   36.4157 F   0  0  0  0  0  0  0  0  0  0  0  0
   24.8761   27.4271   36.4281 H   0  0  0  0  0  0  0  0  0  0  0  0
   31.0171   28.7890   36.1142 H   0  0  0  0  0  0  0  0  0  0  0  0
   32.5409   28.9994   34.1593 H   0  0  0  0  0  0  0  0  0  0  0  0
   31.7456   28.3179   31.9143 H   0  0  0  0  0  0  0  0  0  0  0  0
   29.4999   27.4215   31.6006 H   0  0  0  0  0  0  0  0  0  0  0  0
   27.7068   26.1628   31.6595 H   0  0  0  0  0  0  0  0  0  0  0  0
   26.1681   26.9517   32.0951 H   0  0  0  0  0  0  0  0  0  0  0  0
   20.9120   25.9743   33.2497 H   0  0  0  0  0  0  0  0  0  0  0  0
   19.9610   28.9722   36.0804 H   0  0  0  0  0  0  0  0  0  0  0  0
   21.6847   28.5119   35.9888 H   0  0  0  0  0  0  0  0  0  0  0  0
   18.7937   25.7852   34.4170 H   0  0  0  0  0  0  0  0  0  0  0  0
   18.1228   27.4475   34.8056 H   0  0  0  0  0  0  0  0  0  0  0  0
   20.2312   25.8165   39.1962 H   0  0  0  0  0  0  0  0  0  0  0  0
   23.5575   23.1996   38.6426 H   0  0  0  0  0  0  0  0  0  0  0  0
  1  2  1  0
  2  3  2  0
  2  4  1  0
  4  5  2  0
  5  6  1  0
  6  7  2  0
  7  8  1  0
  8  9  2  0
  9 10  1  0
 10 11  2  0
 11 12  1  0
 12 13  2  0
 13 14  1  0
  1 15  1  0
 15 16  2  0
 16 17  1  0
 17 18  2  0
 18 19  1  0
 19 20  1  0
 20 21  1  0
 21 22  2  0
 21 23  1  0
 20 24  1  0
 24 25  2  0
 25 26  1  0
 26 27  1  0
 26 28  2  0
 28 29  1  0
 29 30  2  0
 29 31  1  0
 13  4  1  0
 30 15  1  0
 12  7  1  0
 23 18  1  0
 30 24  1  0
  1 32  1  0
  8 33  1  0
  9 34  1  0
 10 35  1  0
 11 36  1  0
 14 37  1  0
 14 38  1  0
 17 39  1  0
 19 40  1  0
 19 41  1  0
 23 42  1  0
 23 43  1  0
 25 44  1  0
 28 45  1  0
M  END
$$$$
confid_5
     RDKit          3D

 45 49  0  0  0  0  0  0  0  0999 V2000
   24.5700   26.8800   35.5900 N   0  0  0  0  0  0  0  0  0  0  0  0
   25.5000   26.4000   34.6900 C   0  0  0  0  0  0  0  0  0  0  0  0
   25.1700   25.5200   33.9100 O   0  0  0  0  0  0  0  0  0  0  0  0
   26.8400   27.0200   34.7400 C   0  0  0  0  0  0  0  0  0  0  0  0
   27.3800   27.2800   35.9400 N   0  0  0  0  0  0  0  0  0  0  0  0
   28.6200   27.7400   36.0300 N   0  0  0  0  0  0  0  0  0  0  0  0
   29.3800   28.0000   34.9600 C   0  0  0  0  0  0  0  0  0  0  0  0
   30.6700   28.5000   35.1300 C   0  0  0  0  0  0  0  0  0  0  0  0
   31.5400   28.6100   34.0300 C   0  0  0  0  0  0  0  0  0  0  0  0
   31.0900   28.2200   32.7700 C   0  0  0  0  0  0  0  0  0  0  0  0
   29.8000   27.7000   32.6000 C   0  0  0  0  0  0  0  0  0  0  0  0
   28.9600   27.5500   33.7100 C   0  0  0  0  0  0  0  0  0  0  0  0
   27.6600   27.0300   33.5900 C   0  0  0  0  0  0  0  0  0  0  0  0
   27.1600   26.7400   32.3400 N   0  0  0  0  0  0  0  0  0  0  0  0
   23.1476   26.6619   35.4874 C   0  0  0  0  0  0  0  0  0  0  0  0
   22.6493   26.3629   34.3125 N   0  0  0  0  0  0  0  0  0  0  0  0
   21.2733   26.2387   33.9475 C   0  0  0  0  0  0  0  0  0  0  0  0
   20.4498   27.2895   34.0358 C   0  0  0  0  0  0  0  0  0  0  0  0
   20.9051   28.5137   34.7573 C   0  0  0  0  0  0  0  0  0  0  0  0
   20.4169   28.2283   36.0890 N   0  0  0  0  0  0  0  0  0  0  0  0
   19.1417   27.6231   35.8316 C   0  0  0  0  0  0  0  0  0  0  0  0
   18.2258   27.5522   36.6930 O   0  0  0  0  0  0  0  0  0  0  0  0
   19.0327   27.0628   34.4561 C   0  0  0  0  0  0  0  0  0  0  0  0
   21.2399   27.5788   37.0817 C   0  0  0  0  0  0  0  0  0  0  0  0
   20.8031   27.6855   38.4143 C   0  0  0  0  0  0  0  0  0  0  0  0
   21.3862   26.9341   39.4301 C   0  0  0  0  0  0  0  0  0  0  0  0
   20.9322   27.0445   40.7034 F   0  0  0  0  0  0  0  0  0  0  0  0
   22.4143   26.0488   39.1349 C   0  0  0  0  0  0  0  0  0  0  0  0
   22.8975   25.9399   37.8316 C   0  0  0  0  0  0  0  0  0  0  0  0
   22.3552   26.7115   36.7761 C   0  0  0  0  0  0  0  0  0  0  0  0
   23.9312   25.0862   37.6050 F   0  0  0  0  0  0  0  0  0  0  0  0
   24.8975   27.4424   36.4084 H   0  0  0  0  0  0  0  0  0  0  0  0
   31.0179   28.7883   36.1144 H   0  0  0  0  0  0  0  0  0  0  0  0
   32.5424   28.9969   34.1596 H   0  0  0  0  0  0  0  0  0  0  0  0
   31.7486   28.3094   31.9157 H   0  0  0  0  0  0  0  0  0  0  0  0
   29.5076   27.3813   31.6086 H   0  0  0  0  0  0  0  0  0  0  0  0
   26.7450   25.8076   32.1268 H   0  0  0  0  0  0  0  0  0  0  0  0
   27.2452   27.4248   31.5562 H   0  0  0  0  0  0  0  0  0  0  0  0
   20.9040   25.2793   33.6061 H   0  0  0  0  0  0  0  0  0  0  0  0
   21.9879   28.7525   34.7249 H   0  0  0  0  0  0  0  0  0  0  0  0
   20.3774   29.4066   34.3491 H   0  0  0  0  0  0  0  0  0  0  0  0
   18.7397   25.9901   34.4812 H   0  0  0  0  0  0  0  0  0  0  0  0
   18.3361   27.6667   33.8371 H   0  0  0  0  0  0  0  0  0  0  0  0
   19.9790   28.3437   38.6597 H   0  0  0  0  0  0  0  0  0  0  0  0
   22.8527   25.4516   39.9242 H   0  0  0  0  0  0  0  0  0  0  0  0
  1  2  1  0
  2  3  2  0
  2  4  1  0
  4  5  2  0
  5  6  1  0
  6  7  2  0
  7  8  1  0
  8  9  2  0
  9 10  1  0
 10 11  2  0
 11 12  1  0
 12 13  2  0
 13 14  1  0
  1 15  1  0
 15 16  2  0
 16 17  1  0
 17 18  2  0
 18 19  1  0
 19 20  1  0
 20 21  1  0
 21 22  2  0
 21 23  1  0
 20 24  1  0
 24 25  2  0
 25 26  1  0
 26 27  1  0
 26 28  2  0
 28 29  1  0
 29 30  2  0
 29 31  1  0
 13  4  1  0
 30 15  1  0
 12  7  1  0
 23 18  1  0
 30 24  1  0
  1 32  1  0
  8 33  1  0
  9 34  1  0
 10 35  1  0
 11 36  1  0
 14 37  1  0
 14 38  1  0
 17 39  1  0
 19 40  1  0
 19 41  1  0
 23 42  1  0
 23 43  1  0
 25 44  1  0
 28 45  1  0
M  END
$$$$
confid_6
     RDKit          3D

 45 49  0  0  0  0  0  0  0  0999 V2000
   24.5700   26.8800   35.5900 N   0  0  0  0  0  0  0  0  0  0  0  0
   25.5000   26.4000   34.6900 C   0  0  0  0  0  0  0  0  0  0  0  0
   25.1700   25.5200   33.9100 O   0  0  0  0  0  0  0  0  0  0  0  0
   26.8400   27.0200   34.7400 C   0  0  0  0  0  0  0  0  0  0  0  0
   27.3800   27.2800   35.9400 N   0  0  0  0  0  0  0  0  0  0  0  0
   28.6200   27.7400   36.0300 N   0  0  0  0  0  0  0  0  0  0  0  0
   29.3800   28.0000   34.9600 C   0  0  0  0  0  0  0  0  0  0  0  0
   30.6700   28.5000   35.1300 C   0  0  0  0  0  0  0  0  0  0  0  0
   31.5400   28.6100   34.0300 C   0  0  0  0  0  0  0  0  0  0  0  0
   31.0900   28.2200   32.7700 C   0  0  0  0  0  0  0  0  0  0  0  0
   29.8000   27.7000   32.6000 C   0  0  0  0  0  0  0  0  0  0  0  0
   28.9600   27.5500   33.7100 C   0  0  0  0  0  0  0  0  0  0  0  0
   27.6600   27.0300   33.5900 C   0  0  0  0  0  0  0  0  0  0  0  0
   27.1600   26.7400   32.3400 N   0  0  0  0  0  0  0  0  0  0  0  0
   23.1987   27.0610   35.1870 C   0  0  0  0  0  0  0  0  0  0  0  0
   22.9896   28.1469   34.4728 N   0  0  0  0  0  0  0  0  0  0  0  0
   21.8276   28.7157   33.8643 C   0  0  0  0  0  0  0  0  0  0  0  0
   20.7313   29.0180   34.5689 C   0  0  0  0  0  0  0  0  0  0  0  0
   20.5803   28.4432   35.9298 C   0  0  0  0  0  0  0  0  0  0  0  0
   19.9597   27.1831   35.5847 N   0  0  0  0  0  0  0  0  0  0  0  0
   19.0544   27.5455   34.5294 C   0  0  0  0  0  0  0  0  0  0  0  0
   18.0994   26.8174   34.1445 O   0  0  0  0  0  0  0  0  0  0  0  0
   19.4008   28.8576   33.9111 C   0  0  0  0  0  0  0  0  0  0  0  0
   20.7394   25.9732   35.4374 C   0  0  0  0  0  0  0  0  0  0  0  0
   19.9925   24.7809   35.3626 C   0  0  0  0  0  0  0  0  0  0  0  0
   20.6030   23.5389   35.3963 C   0  0  0  0  0  0  0  0  0  0  0  0
   19.8594   22.4138   35.3077 F   0  0  0  0  0  0  0  0  0  0  0  0
   21.9677   23.4585   35.5969 C   0  0  0  0  0  0  0  0  0  0  0  0
   22.7464   24.6131   35.6763 C   0  0  0  0  0  0  0  0  0  0  0  0
   22.1932   25.9092   35.4419 C   0  0  0  0  0  0  0  0  0  0  0  0
   24.0436   24.4245   36.0389 F   0  0  0  0  0  0  0  0  0  0  0  0
   24.8839   27.4373   36.4205 H   0  0  0  0  0  0  0  0  0  0  0  0
   31.0170   28.7900   36.1148 H   0  0  0  0  0  0  0  0  0  0  0  0
   32.5419   28.9980   34.1597 H   0  0  0  0  0  0  0  0  0  0  0  0
   31.7461   28.3182   31.9144 H   0  0  0  0  0  0  0  0  0  0  0  0
   29.5026   27.4239   31.5988 H   0  0  0  0  0  0  0  0  0  0  0  0
   26.1766   26.9863   32.0877 H   0  0  0  0  0  0  0  0  0  0  0  0
   27.7097   26.1939   31.6435 H   0  0  0  0  0  0  0  0  0  0  0  0
   21.8759   28.9797   32.8208 H   0  0  0  0  0  0  0  0  0  0  0  0
   19.8949   29.0801   36.5317 H   0  0  0  0  0  0  0  0  0  0  0  0
   21.5026   28.3391   36.5362 H   0  0  0  0  0  0  0  0  0  0  0  0
   19.4477   28.7826   32.8043 H   0  0  0  0  0  0  0  0  0  0  0  0
   18.6831   29.6394   34.2423 H   0  0  0  0  0  0  0  0  0  0  0  0
   18.9130   24.8122   35.3426 H   0  0  0  0  0  0  0  0  0  0  0  0
   22.4386   22.4922   35.7213 H   0  0  0  0  0  0  0  0  0  0  0  0
  1  2  1  0
  2  3  2  0
  2  4  1  0
  4  5  2  0
  5  6  1  0
  6  7  2  0
  7  8  1  0
  8  9  2  0
  9 10  1  0
 10 11  2  0
 11 12  1  0
 12 13  2  0
 13 14  1  0
  1 15  1  0
 15 16  2  0
 16 17  1  0
 17 18  2  0
 18 19  1  0
 19 20  1  0
 20 21  1  0
 21 22  2  0
 21 23  1  0
 20 24  1  0
 24 25  2  0
 25 26  1  0
 26 27  1  0
 26 28  2  0
 28 29  1  0
 29 30  2  0
 29 31  1  0
 13  4  1  0
 30 15  1  0
 12  7  1  0
 23 18  1  0
 30 24  1  0
  1 32  1  0
  8 33  1  0
  9 34  1  0
 10 35  1  0
 11 36  1  0
 14 37  1  0
 14 38  1  0
 17 39  1  0
 19 40  1  0
 19 41  1  0
 23 42  1  0
 23 43  1  0
 25 44  1  0
 28 45  1  0
M  END
$$$$
