confid_0
     RDKit          3D

 43 46  0  0  0  0  0  0  0  0999 V2000
   24.6900   26.1200   35.5300 N   0  0  0  0  0  0  0  0  0  0  0  0
   25.6600   25.6700   34.6600 C   0  0  0  0  0  0  0  0  0  0  0  0
   25.2400   25.0100   33.7200 O   0  0  0  0  0  0  0  0  0  0  0  0
   27.0300   26.2200   34.8800 C   0  0  0  0  0  0  0  0  0  0  0  0
   27.3500   26.7300   36.0700 N   0  0  0  0  0  0  0  0  0  0  0  0
   28.5700   27.1800   36.3300 N   0  0  0  0  0  0  0  0  0  0  0  0
   29.5300   27.1100   35.3900 C   0  0  0  0  0  0  0  0  0  0  0  0
   30.8300   27.5700   35.6500 C   0  0  0  0  0  0  0  0  0  0  0  0
   31.8500   27.5400   34.6900 C   0  0  0  0  0  0  0  0  0  0  0  0
   31.5100   27.1200   33.4000 C   0  0  0  0  0  0  0  0  0  0  0  0
   30.2200   26.6300   33.1100 C   0  0  0  0  0  0  0  0  0  0  0  0
   29.2400   26.6600   34.1000 C   0  0  0  0  0  0  0  0  0  0  0  0
   27.9300   26.2600   33.8100 C   0  0  0  0  0  0  0  0  0  0  0  0
   27.5200   25.7100   32.6100 N   0  0  0  0  0  0  0  0  0  0  0  0
   23.4853   25.3807   35.8200 C   0  0  0  0  0  0  0  0  0  0  0  0
   23.4831   24.0297   35.6582 N   0  0  0  0  0  0  0  0  0  0  0  0
   22.4112   23.2616   35.9651 C   0  0  0  0  0  0  0  0  0  0  0  0
   21.2633   23.8399   36.4985 C   0  0  0  0  0  0  0  0  0  0  0  0
   20.1942   23.0150   36.8404 O   0  0  0  0  0  0  0  0  0  0  0  0
   19.0656   23.5116   37.4789 C   0  0  0  0  0  0  0  0  0  0  0  0
   18.1397   22.7195   37.8004 O   0  0  0  0  0  0  0  0  0  0  0  0
   18.9702   24.9107   37.7818 N   0  0  0  0  0  0  0  0  0  0  0  0
   17.8104   25.4128   38.5214 C   0  0  0  0  0  0  0  0  0  0  0  0
   19.9444   25.8710   37.2452 C   0  0  0  0  0  0  0  0  0  0  0  0
   21.2070   25.2335   36.6903 C   0  0  0  0  0  0  0  0  0  0  0  0
   22.3227   26.0283   36.3090 C   0  0  0  0  0  0  0  0  0  0  0  0
   22.2989   27.5356   36.4432 C   0  0  0  0  0  0  0  0  0  0  0  0
   24.8546   27.0133   36.0463 H   0  0  0  0  0  0  0  0  0  0  0  0
   31.0672   27.9417   36.6393 H   0  0  0  0  0  0  0  0  0  0  0  0
   32.8482   27.8886   34.9211 H   0  0  0  0  0  0  0  0  0  0  0  0
   32.2640   27.1263   32.6235 H   0  0  0  0  0  0  0  0  0  0  0  0
   30.0100   26.3033   32.1004 H   0  0  0  0  0  0  0  0  0  0  0  0
   26.6937   26.1023   32.1057 H   0  0  0  0  0  0  0  0  0  0  0  0
   28.1316   25.0435   32.0892 H   0  0  0  0  0  0  0  0  0  0  0  0
   22.4615   22.1911   35.8157 H   0  0  0  0  0  0  0  0  0  0  0  0
   17.8533   26.5177   38.6327 H   0  0  0  0  0  0  0  0  0  0  0  0
   17.7875   24.9581   39.5342 H   0  0  0  0  0  0  0  0  0  0  0  0
   16.8762   25.1529   37.9799 H   0  0  0  0  0  0  0  0  0  0  0  0
   20.2314   26.5712   38.0598 H   0  0  0  0  0  0  0  0  0  0  0  0
   19.4534   26.4506   36.4343 H   0  0  0  0  0  0  0  0  0  0  0  0
   21.2719   27.9493   36.4121 H   0  0  0  0  0  0  0  0  0  0  0  0
   22.7785   27.8309   37.3996 H   0  0  0  0  0  0  0  0  0  0  0  0
   22.8361   28.0130   35.5972 H   0  0  0  0  0  0  0  0  0  0  0  0
  1  2  1  0
  2  3  2  0
  2  4  1  0
  4  5  2  0
  5  6  1  0
  6  7  2  0
  7  8  1  0
  8  9  2  0
  9 10  1  0
 10 11  2  0
 11 12  1  0
 12 13  2  0
 13 14  1  0
  1 15  1  0
 15 16  2  0
 16 17  1  0
 17 18  2  0
 18 19  1  0
 19 20  1  0
 20 21  2  0
 20 22  1  0
 22 23  1  0
 22 24  1  0
 24 25  1  0
 25 26  2  0
 26 27  1  0
 13  4  1  0
 26 15  1  0
 12  7  1  0
 25 18  1  0
  1 28  1  0
  8 29  1  0
  9 30  1  0
 10 31  1  0
 11 32  1  0
 14 33  1  0
 14 34  1  0
 17 35  1  0
 23 36  1  0
 23 37  1  0
 23 38  1  0
 24 39  1  0
 24 40  1  0
 27 41  1  0
 27 42  1  0
 27 43  1  0
M  END
$$$$
confid_1
     RDKit          3D

 43 46  0  0  0  0  0  0  0  0999 V2000
   24.6900   26.1200   35.5300 N   0  0  0  0  0  0  0  0  0  0  0  0
   25.6600   25.6700   34.6600 C   0  0  0  0  0  0  0  0  0  0  0  0
   25.2400   25.0100   33.7200 O   0  0  0  0  0  0  0  0  0  0  0  0
   27.0300   26.2200   34.8800 C   0  0  0  0  0  0  0  0  0  0  0  0
   27.3500   26.7300   36.0700 N   0  0  0  0  0  0  0  0  0  0  0  0
   28.5700   27.1800   36.3300 N   0  0  0  0  0  0  0  0  0  0  0  0
   29.5300   27.1100   35.3900 C   0  0  0  0  0  0  0  0  0  0  0  0
   30.8300   27.5700   35.6500 C   0  0  0  0  0  0  0  0  0  0  0  0
   31.8500   27.5400   34.6900 C   0  0  0  0  0  0  0  0  0  0  0  0
   31.5100   27.1200   33.4000 C   0  0  0  0  0  0  0  0  0  0  0  0
   30.2200   26.6300   33.1100 C   0  0  0  0  0  0  0  0  0  0  0  0
   29.2400   26.6600   34.1000 C   0  0  0  0  0  0  0  0  0  0  0  0
   27.9300   26.2600   33.8100 C   0  0  0  0  0  0  0  0  0  0  0  0
   27.5200   25.7100   32.6100 N   0  0  0  0  0  0  0  0  0  0  0  0
   23.2816   26.1499   35.2164 C   0  0  0  0  0  0  0  0  0  0  0  0
   22.8914   26.4122   33.9392 N   0  0  0  0  0  0  0  0  0  0  0  0
   21.5885   26.5086   33.5820 C   0  0  0  0  0  0  0  0  0  0  0  0
   20.5865   26.3678   34.5382 C   0  0  0  0  0  0  0  0  0  0  0  0
   19.2578   26.5044   34.1428 O   0  0  0  0  0  0  0  0  0  0  0  0
   18.2166   26.4775   35.0613 C   0  0  0  0  0  0  0  0  0  0  0  0
   17.0330   26.6358   34.6576 O   0  0  0  0  0  0  0  0  0  0  0  0
   18.4953   26.2870   36.4554 N   0  0  0  0  0  0  0  0  0  0  0  0
   17.3994   26.3379   37.4253 C   0  0  0  0  0  0  0  0  0  0  0  0
   19.8387   25.9080   36.9156 C   0  0  0  0  0  0  0  0  0  0  0  0
   20.9303   26.0991   35.8766 C   0  0  0  0  0  0  0  0  0  0  0  0
   22.3019   25.9523   36.2211 C   0  0  0  0  0  0  0  0  0  0  0  0
   22.7262   25.6182   37.6348 C   0  0  0  0  0  0  0  0  0  0  0  0
   24.9698   26.4711   36.4723 H   0  0  0  0  0  0  0  0  0  0  0  0
   31.0673   27.9415   36.6393 H   0  0  0  0  0  0  0  0  0  0  0  0
   32.8486   27.8873   34.9214 H   0  0  0  0  0  0  0  0  0  0  0  0
   32.2655   27.1208   32.6249 H   0  0  0  0  0  0  0  0  0  0  0  0
   30.0114   26.2784   32.1078 H   0  0  0  0  0  0  0  0  0  0  0  0
   27.6976   26.2230   31.7183 H   0  0  0  0  0  0  0  0  0  0  0  0
   27.3404   24.6834   32.5416 H   0  0  0  0  0  0  0  0  0  0  0  0
   21.3312   26.7137   32.5508 H   0  0  0  0  0  0  0  0  0  0  0  0
   17.7641   26.1269   38.4538 H   0  0  0  0  0  0  0  0  0  0  0  0
   16.6301   25.5796   37.1661 H   0  0  0  0  0  0  0  0  0  0  0  0
   16.9386   27.3483   37.4162 H   0  0  0  0  0  0  0  0  0  0  0  0
   19.8164   24.8378   37.2124 H   0  0  0  0  0  0  0  0  0  0  0  0
   20.0903   26.5194   37.8094 H   0  0  0  0  0  0  0  0  0  0  0  0
   23.6367   24.9848   37.6363 H   0  0  0  0  0  0  0  0  0  0  0  0
   21.9578   25.0328   38.1768 H   0  0  0  0  0  0  0  0  0  0  0  0
   22.9286   26.5552   38.1936 H   0  0  0  0  0  0  0  0  0  0  0  0
  1  2  1  0
  2  3  2  0
  2  4  1  0
  4  5  2  0
  5  6  1  0
  6  7  2  0
  7  8  1  0
  8  9  2  0
  9 10  1  0
 10 11  2  0
 11 12  1  0
 12 13  2  0
 13 14  1  0
  1 15  1  0
 15 16  2  0
 16 17  1  0
 17 18  2  0
 18 19  1  0
 19 20  1  0
 20 21  2  0
 20 22  1  0
 22 23  1  0
 22 24  1  0
 24 25  1  0
 25 26  2  0
 26 27  1  0
 13  4  1  0
 26 15  1  0
 12  7  1  0
 25 18  1  0
  1 28  1  0
  8 29  1  0
  9 30  1  0
 10 31  1  0
 11 32  1  0
 14 33  1  0
 14 34  1  0
 17 35  1  0
 23 36  1  0
 23 37  1  0
 23 38  1  0
 24 39  1  0
 24 40  1  0
 27 41  1  0
 27 42  1  0
 27 43  1  0
M  END
$$$$
confid_2
     RDKit          3D

 43 46  0  0  0  0  0  0  0  0999 V2000
   24.6900   26.1200   35.5300 N   0  0  0  0  0  0  0  0  0  0  0  0
   25.6600   25.6700   34.6600 C   0  0  0  0  0  0  0  0  0  0  0  0
   25.2400   25.0100   33.7200 O   0  0  0  0  0  0  0  0  0  0  0  0
   27.0300   26.2200   34.8800 C   0  0  0  0  0  0  0  0  0  0  0  0
   27.3500   26.7300   36.0700 N   0  0  0  0  0  0  0  0  0  0  0  0
   28.5700   27.1800   36.3300 N   0  0  0  0  0  0  0  0  0  0  0  0
   29.5300   27.1100   35.3900 C   0  0  0  0  0  0  0  0  0  0  0  0
   30.8300   27.5700   35.6500 C   0  0  0  0  0  0  0  0  0  0  0  0
   31.8500   27.5400   34.6900 C   0  0  0  0  0  0  0  0  0  0  0  0
   31.5100   27.1200   33.4000 C   0  0  0  0  0  0  0  0  0  0  0  0
   30.2200   26.6300   33.1100 C   0  0  0  0  0  0  0  0  0  0  0  0
   29.2400   26.6600   34.1000 C   0  0  0  0  0  0  0  0  0  0  0  0
   27.9300   26.2600   33.8100 C   0  0  0  0  0  0  0  0  0  0  0  0
   27.5200   25.7100   32.6100 N   0  0  0  0  0  0  0  0  0  0  0  0
   23.5419   25.3389   35.9408 C   0  0  0  0  0  0  0  0  0  0  0  0
   23.2818   24.1569   35.3187 N   0  0  0  0  0  0  0  0  0  0  0  0
   22.2141   23.3853   35.6272 C   0  0  0  0  0  0  0  0  0  0  0  0
   21.3102   23.7962   36.6001 C   0  0  0  0  0  0  0  0  0  0  0  0
   20.2036   22.9928   36.8654 O   0  0  0  0  0  0  0  0  0  0  0  0
   19.2074   23.3920   37.7457 C   0  0  0  0  0  0  0  0  0  0  0  0
   18.2050   22.6486   37.9209 O   0  0  0  0  0  0  0  0  0  0  0  0
   19.3155   24.6487   38.4296 N   0  0  0  0  0  0  0  0  0  0  0  0
   18.2236   25.0965   39.2968 C   0  0  0  0  0  0  0  0  0  0  0  0
   20.5492   25.4437   38.3684 C   0  0  0  0  0  0  0  0  0  0  0  0
   21.5243   25.0063   37.2873 C   0  0  0  0  0  0  0  0  0  0  0  0
   22.6833   25.7770   36.9855 C   0  0  0  0  0  0  0  0  0  0  0  0
   23.0065   27.0483   37.7442 C   0  0  0  0  0  0  0  0  0  0  0  0
   24.8142   27.0813   35.9179 H   0  0  0  0  0  0  0  0  0  0  0  0
   31.0671   27.9416   36.6393 H   0  0  0  0  0  0  0  0  0  0  0  0
   32.8483   27.8884   34.9210 H   0  0  0  0  0  0  0  0  0  0  0  0
   32.2640   27.1262   32.6235 H   0  0  0  0  0  0  0  0  0  0  0  0
   30.0101   26.3033   32.1004 H   0  0  0  0  0  0  0  0  0  0  0  0
   28.1316   25.0437   32.0891 H   0  0  0  0  0  0  0  0  0  0  0  0
   26.6935   26.1021   32.1058 H   0  0  0  0  0  0  0  0  0  0  0  0
   22.0578   22.4547   35.0974 H   0  0  0  0  0  0  0  0  0  0  0  0
   17.3015   25.2370   38.6936 H   0  0  0  0  0  0  0  0  0  0  0  0
   18.4720   26.0616   39.7895 H   0  0  0  0  0  0  0  0  0  0  0  0
   18.0348   24.3394   40.0875 H   0  0  0  0  0  0  0  0  0  0  0  0
   21.0576   25.3756   39.3536 H   0  0  0  0  0  0  0  0  0  0  0  0
   20.2703   26.5033   38.1821 H   0  0  0  0  0  0  0  0  0  0  0  0
   22.7904   27.9290   37.1036 H   0  0  0  0  0  0  0  0  0  0  0  0
   22.4394   27.1547   38.6884 H   0  0  0  0  0  0  0  0  0  0  0  0
   24.0764   27.0559   38.0407 H   0  0  0  0  0  0  0  0  0  0  0  0
  1  2  1  0
  2  3  2  0
  2  4  1  0
  4  5  2  0
  5  6  1  0
  6  7  2  0
  7  8  1  0
  8  9  2  0
  9 10  1  0
 10 11  2  0
 11 12  1  0
 12 13  2  0
 13 14  1  0
  1 15  1  0
 15 16  2  0
 16 17  1  0
 17 18  2  0
 18 19  1  0
 19 20  1  0
 20 21  2  0
 20 22  1  0
 22 23  1  0
 22 24  1  0
 24 25  1  0
 25 26  2  0
 26 27  1  0
 13  4  1  0
 26 15  1  0
 12  7  1  0
 25 18  1  0
  1 28  1  0
  8 29  1  0
  9 30  1  0
 10 31  1  0
 11 32  1  0
 14 33  1  0
 14 34  1  0
 17 35  1  0
 23 36  1  0
 23 37  1  0
 23 38  1  0
 24 39  1  0
 24 40  1  0
 27 41  1  0
 27 42  1  0
 27 43  1  0
M  END
$$$$
confid_3
     RDKit          3D

 43 46  0  0  0  0  0  0  0  0999 V2000
   24.6900   26.1200   35.5300 N   0  0  0  0  0  0  0  0  0  0  0  0
   25.6600   25.6700   34.6600 C   0  0  0  0  0  0  0  0  0  0  0  0
   25.2400   25.0100   33.7200 O   0  0  0  0  0  0  0  0  0  0  0  0
   27.0300   26.2200   34.8800 C   0  0  0  0  0  0  0  0  0  0  0  0
   27.3500   26.7300   36.0700 N   0  0  0  0  0  0  0  0  0  0  0  0
   28.5700   27.1800   36.3300 N   0  0  0  0  0  0  0  0  0  0  0  0
   29.5300   27.1100   35.3900 C   0  0  0  0  0  0  0  0  0  0  0  0
   30.8300   27.5700   35.6500 C   0  0  0  0  0  0  0  0  0  0  0  0
   31.8500   27.5400   34.6900 C   0  0  0  0  0  0  0  0  0  0  0  0
   31.5100   27.1200   33.4000 C   0  0  0  0  0  0  0  0  0  0  0  0
   30.2200   26.6300   33.1100 C   0  0  0  0  0  0  0  0  0  0  0  0
   29.2400   26.6600   34.1000 C   0  0  0  0  0  0  0  0  0  0  0  0
   27.9300   26.2600   33.8100 C   0  0  0  0  0  0  0  0  0  0  0  0
   27.5200   25.7100   32.6100 N   0  0  0  0  0  0  0  0  0  0  0  0
   23.5547   25.3250   35.9429 C   0  0  0  0  0  0  0  0  0  0  0  0
   23.4810   24.0251   35.5476 N   0  0  0  0  0  0  0  0  0  0  0  0
   22.4626   23.2082   35.9028 C   0  0  0  0  0  0  0  0  0  0  0  0
   21.4214   23.6867   36.6902 C   0  0  0  0  0  0  0  0  0  0  0  0
   20.3830   22.8154   37.0193 O   0  0  0  0  0  0  0  0  0  0  0  0
   19.2836   23.2383   37.7545 C   0  0  0  0  0  0  0  0  0  0  0  0
   18.3644   22.4152   38.0133 O   0  0  0  0  0  0  0  0  0  0  0  0
   19.1952   24.6009   38.2006 N   0  0  0  0  0  0  0  0  0  0  0  0
   18.0006   25.0524   38.9199 C   0  0  0  0  0  0  0  0  0  0  0  0
   20.3106   25.5414   38.0188 C   0  0  0  0  0  0  0  0  0  0  0  0
   21.4357   25.0239   37.1348 C   0  0  0  0  0  0  0  0  0  0  0  0
   22.5330   25.8599   36.7753 C   0  0  0  0  0  0  0  0  0  0  0  0
   22.6326   27.2971   37.2489 C   0  0  0  0  0  0  0  0  0  0  0  0
   24.8183   27.0753   35.9303 H   0  0  0  0  0  0  0  0  0  0  0  0
   31.0672   27.9413   36.6395 H   0  0  0  0  0  0  0  0  0  0  0  0
   32.8486   27.8870   34.9215 H   0  0  0  0  0  0  0  0  0  0  0  0
   32.2655   27.1206   32.6250 H   0  0  0  0  0  0  0  0  0  0  0  0
   30.0112   26.2785   32.1078 H   0  0  0  0  0  0  0  0  0  0  0  0
   27.3398   24.6834   32.5419 H   0  0  0  0  0  0  0  0  0  0  0  0
   27.6988   26.2222   31.7181 H   0  0  0  0  0  0  0  0  0  0  0  0
   22.4567   22.1814   35.5584 H   0  0  0  0  0  0  0  0  0  0  0  0
   17.1114   24.9703   38.2577 H   0  0  0  0  0  0  0  0  0  0  0  0
   18.1025   26.1097   39.2444 H   0  0  0  0  0  0  0  0  0  0  0  0
   17.8474   24.4261   39.8251 H   0  0  0  0  0  0  0  0  0  0  0  0
   20.7333   25.7854   39.0204 H   0  0  0  0  0  0  0  0  0  0  0  0
   19.9012   26.4722   37.5640 H   0  0  0  0  0  0  0  0  0  0  0  0
   22.6446   27.9732   36.3640 H   0  0  0  0  0  0  0  0  0  0  0  0
   21.7996   27.6259   37.9068 H   0  0  0  0  0  0  0  0  0  0  0  0
   23.5688   27.4276   37.8362 H   0  0  0  0  0  0  0  0  0  0  0  0
  1  2  1  0
  2  3  2  0
  2  4  1  0
  4  5  2  0
  5  6  1  0
  6  7  2  0
  7  8  1  0
  8  9  2  0
  9 10  1  0
 10 11  2  0
 11 12  1  0
 12 13  2  0
 13 14  1  0
  1 15  1  0
 15 16  2  0
 16 17  1  0
 17 18  2  0
 18 19  1  0
 19 20  1  0
 20 21  2  0
 20 22  1  0
 22 23  1  0
 22 24  1  0
 24 25  1  0
 25 26  2  0
 26 27  1  0
 13  4  1  0
 26 15  1  0
 12  7  1  0
 25 18  1  0
  1 28  1  0
  8 29  1  0
  9 30  1  0
 10 31  1  0
 11 32  1  0
 14 33  1  0
 14 34  1  0
 17 35  1  0
 23 36  1  0
 23 37  1  0
 23 38  1  0
 24 39  1  0
 24 40  1  0
 27 41  1  0
 27 42  1  0
 27 43  1  0
M  END
$$$$
confid_4
     RDKit          3D

 43 46  0  0  0  0  0  0  0  0999 V2000
   24.6900   26.1200   35.5300 N   0  0  0  0  0  0  0  0  0  0  0  0
   25.6600   25.6700   34.6600 C   0  0  0  0  0  0  0  0  0  0  0  0
   25.2400   25.0100   33.7200 O   0  0  0  0  0  0  0  0  0  0  0  0
   27.0300   26.2200   34.8800 C   0  0  0  0  0  0  0  0  0  0  0  0
   27.3500   26.7300   36.0700 N   0  0  0  0  0  0  0  0  0  0  0  0
   28.5700   27.1800   36.3300 N   0  0  0  0  0  0  0  0  0  0  0  0
   29.5300   27.1100   35.3900 C   0  0  0  0  0  0  0  0  0  0  0  0
   30.8300   27.5700   35.6500 C   0  0  0  0  0  0  0  0  0  0  0  0
   31.8500   27.5400   34.6900 C   0  0  0  0  0  0  0  0  0  0  0  0
   31.5100   27.1200   33.4000 C   0  0  0  0  0  0  0  0  0  0  0  0
   30.2200   26.6300   33.1100 C   0  0  0  0  0  0  0  0  0  0  0  0
   29.2400   26.6600   34.1000 C   0  0  0  0  0  0  0  0  0  0  0  0
   27.9300   26.2600   33.8100 C   0  0  0  0  0  0  0  0  0  0  0  0
   27.5200   25.7100   32.6100 N   0  0  0  0  0  0  0  0  0  0  0  0
   23.2721   25.9169   35.3429 C   0  0  0  0  0  0  0  0  0  0  0  0
   22.7494   25.9868   34.0891 N   0  0  0  0  0  0  0  0  0  0  0  0
   21.4220   25.8648   33.8451 C   0  0  0  0  0  0  0  0  0  0  0  0
   20.5281   25.6903   34.8978 C   0  0  0  0  0  0  0  0  0  0  0  0
   19.1661   25.6028   34.6146 O   0  0  0  0  0  0  0  0  0  0  0  0
   18.2144   25.5392   35.6242 C   0  0  0  0  0  0  0  0  0  0  0  0
   16.9918   25.4981   35.3176 O   0  0  0  0  0  0  0  0  0  0  0  0
   18.6264   25.5343   37.0002 N   0  0  0  0  0  0  0  0  0  0  0  0
   17.6140   25.5319   38.0586 C   0  0  0  0  0  0  0  0  0  0  0  0
   20.0430   25.3962   37.3699 C   0  0  0  0  0  0  0  0  0  0  0  0
   21.0105   25.6171   36.2185 C   0  0  0  0  0  0  0  0  0  0  0  0
   22.4113   25.7002   36.4479 C   0  0  0  0  0  0  0  0  0  0  0  0
   22.9864   25.5975   37.8441 C   0  0  0  0  0  0  0  0  0  0  0  0
   24.9677   26.6451   36.3886 H   0  0  0  0  0  0  0  0  0  0  0  0
   31.0674   27.9415   36.6393 H   0  0  0  0  0  0  0  0  0  0  0  0
   32.8486   27.8873   34.9215 H   0  0  0  0  0  0  0  0  0  0  0  0
   32.2655   27.1207   32.6249 H   0  0  0  0  0  0  0  0  0  0  0  0
   30.0114   26.2784   32.1078 H   0  0  0  0  0  0  0  0  0  0  0  0
   27.3404   24.6834   32.5417 H   0  0  0  0  0  0  0  0  0  0  0  0
   27.6975   26.2230   31.7183 H   0  0  0  0  0  0  0  0  0  0  0  0
   21.0575   25.9288   32.8284 H   0  0  0  0  0  0  0  0  0  0  0  0
   18.0836   25.4547   39.0636 H   0  0  0  0  0  0  0  0  0  0  0  0
   17.0272   26.4740   38.0152 H   0  0  0  0  0  0  0  0  0  0  0  0
   16.9309   24.6645   37.9261 H   0  0  0  0  0  0  0  0  0  0  0  0
   20.2722   26.1345   38.1718 H   0  0  0  0  0  0  0  0  0  0  0  0
   20.2001   24.3715   37.7749 H   0  0  0  0  0  0  0  0  0  0  0  0
   23.9866   25.1163   37.8290 H   0  0  0  0  0  0  0  0  0  0  0  0
   23.0732   26.6129   38.2837 H   0  0  0  0  0  0  0  0  0  0  0  0
   22.3632   24.9663   38.5087 H   0  0  0  0  0  0  0  0  0  0  0  0
  1  2  1  0
  2  3  2  0
  2  4  1  0
  4  5  2  0
  5  6  1  0
  6  7  2  0
  7  8  1  0
  8  9  2  0
  9 10  1  0
 10 11  2  0
 11 12  1  0
 12 13  2  0
 13 14  1  0
  1 15  1  0
 15 16  2  0
 16 17  1  0
 17 18  2  0
 18 19  1  0
 19 20  1  0
 20 21  2  0
 20 22  1  0
 22 23  1  0
 22 24  1  0
 24 25  1  0
 25 26  2  0
 26 27  1  0
 13  4  1  0
 26 15  1  0
 12  7  1  0
 25 18  1  0
  1 28  1  0
  8 29  1  0
  9 30  1  0
 10 31  1  0
 11 32  1  0
 14 33  1  0
 14 34  1  0
 17 35  1  0
 23 36  1  0
 23 37  1  0
 23 38  1  0
 24 39  1  0
 24 40  1  0
 27 41  1  0
 27 42  1  0
 27 43  1  0
M  END
$$$$
confid_5
     RDKit          3D

 43 46  0  0  0  0  0  0  0  0999 V2000
   24.6900   26.1200   35.5300 N   0  0  0  0  0  0  0  0  0  0  0  0
   25.6600   25.6700   34.6600 C   0  0  0  0  0  0  0  0  0  0  0  0
   25.2400   25.0100   33.7200 O   0  0  0  0  0  0  0  0  0  0  0  0
   27.0300   26.2200   34.8800 C   0  0  0  0  0  0  0  0  0  0  0  0
   27.3500   26.7300   36.0700 N   0  0  0  0  0  0  0  0  0  0  0  0
   28.5700   27.1800   36.3300 N   0  0  0  0  0  0  0  0  0  0  0  0
   29.5300   27.1100   35.3900 C   0  0  0  0  0  0  0  0  0  0  0  0
   30.8300   27.5700   35.6500 C   0  0  0  0  0  0  0  0  0  0  0  0
   31.8500   27.5400   34.6900 C   0  0  0  0  0  0  0  0  0  0  0  0
   31.5100   27.1200   33.4000 C   0  0  0  0  0  0  0  0  0  0  0  0
   30.2200   26.6300   33.1100 C   0  0  0  0  0  0  0  0  0  0  0  0
   29.2400   26.6600   34.1000 C   0  0  0  0  0  0  0  0  0  0  0  0
   27.9300   26.2600   33.8100 C   0  0  0  0  0  0  0  0  0  0  0  0
   27.5200   25.7100   32.6100 N   0  0  0  0  0  0  0  0  0  0  0  0
   23.2985   26.2610   35.1740 C   0  0  0  0  0  0  0  0  0  0  0  0
   22.9705   26.5534   33.8864 N   0  0  0  0  0  0  0  0  0  0  0  0
   21.6922   26.7592   33.4899 C   0  0  0  0  0  0  0  0  0  0  0  0
   20.6534   26.7049   34.4143 C   0  0  0  0  0  0  0  0  0  0  0  0
   19.3550   26.9600   33.9790 O   0  0  0  0  0  0  0  0  0  0  0  0
   18.2887   27.0281   34.8661 C   0  0  0  0  0  0  0  0  0  0  0  0
   17.1393   27.3027   34.4295 O   0  0  0  0  0  0  0  0  0  0  0  0
   18.5055   26.8074   36.2670 N   0  0  0  0  0  0  0  0  0  0  0  0
   17.3866   26.9442   37.2017 C   0  0  0  0  0  0  0  0  0  0  0  0
   19.7972   26.3176   36.7682 C   0  0  0  0  0  0  0  0  0  0  0  0
   20.9316   26.4064   35.7614 C   0  0  0  0  0  0  0  0  0  0  0  0
   22.2750   26.1456   36.1475 C   0  0  0  0  0  0  0  0  0  0  0  0
   22.6286   25.7837   37.5737 C   0  0  0  0  0  0  0  0  0  0  0  0
   24.9682   26.4115   36.4936 H   0  0  0  0  0  0  0  0  0  0  0  0
   31.0672   27.9417   36.6393 H   0  0  0  0  0  0  0  0  0  0  0  0
   32.8482   27.8886   34.9211 H   0  0  0  0  0  0  0  0  0  0  0  0
   32.2640   27.1263   32.6235 H   0  0  0  0  0  0  0  0  0  0  0  0
   30.0101   26.3033   32.1004 H   0  0  0  0  0  0  0  0  0  0  0  0
   26.6933   26.1019   32.1059 H   0  0  0  0  0  0  0  0  0  0  0  0
   28.1318   25.0439   32.0890 H   0  0  0  0  0  0  0  0  0  0  0  0
   21.4851   26.9868   32.4523 H   0  0  0  0  0  0  0  0  0  0  0  0
   16.9996   27.9854   37.1721 H   0  0  0  0  0  0  0  0  0  0  0  0
   17.7032   26.7158   38.2429 H   0  0  0  0  0  0  0  0  0  0  0  0
   16.5728   26.2418   36.9205 H   0  0  0  0  0  0  0  0  0  0  0  0
   19.6746   25.2558   37.0726 H   0  0  0  0  0  0  0  0  0  0  0  0
   20.0741   26.9141   37.6645 H   0  0  0  0  0  0  0  0  0  0  0  0
   23.4639   25.0520   37.6000 H   0  0  0  0  0  0  0  0  0  0  0  0
   21.7896   25.2955   38.1084 H   0  0  0  0  0  0  0  0  0  0  0  0
   22.9243   26.7014   38.1251 H   0  0  0  0  0  0  0  0  0  0  0  0
  1  2  1  0
  2  3  2  0
  2  4  1  0
  4  5  2  0
  5  6  1  0
  6  7  2  0
  7  8  1  0
  8  9  2  0
  9 10  1  0
 10 11  2  0
 11 12  1  0
 12 13  2  0
 13 14  1  0
  1 15  1  0
 15 16  2  0
 16 17  1  0
 17 18  2  0
 18 19  1  0
 19 20  1  0
 20 21  2  0
 20 22  1  0
 22 23  1  0
 22 24  1  0
 24 25  1  0
 25 26  2  0
 26 27  1  0
 13  4  1  0
 26 15  1  0
 12  7  1  0
 25 18  1  0
  1 28  1  0
  8 29  1  0
  9 30  1  0
 10 31  1  0
 11 32  1  0
 14 33  1  0
 14 34  1  0
 17 35  1  0
 23 36  1  0
 23 37  1  0
 23 38  1  0
 24 39  1  0
 24 40  1  0
 27 41  1  0
 27 42  1  0
 27 43  1  0
M  END
$$$$
confid_6
     RDKit          3D

 43 46  0  0  0  0  0  0  0  0999 V2000
   24.6900   26.1200   35.5300 N   0  0  0  0  0  0  0  0  0  0  0  0
   25.6600   25.6700   34.6600 C   0  0  0  0  0  0  0  0  0  0  0  0
   25.2400   25.0100   33.7200 O   0  0  0  0  0  0  0  0  0  0  0  0
   27.0300   26.2200   34.8800 C   0  0  0  0  0  0  0  0  0  0  0  0
   27.3500   26.7300   36.0700 N   0  0  0  0  0  0  0  0  0  0  0  0
   28.5700   27.1800   36.3300 N   0  0  0  0  0  0  0  0  0  0  0  0
   29.5300   27.1100   35.3900 C   0  0  0  0  0  0  0  0  0  0  0  0
   30.8300   27.5700   35.6500 C   0  0  0  0  0  0  0  0  0  0  0  0
   31.8500   27.5400   34.6900 C   0  0  0  0  0  0  0  0  0  0  0  0
   31.5100   27.1200   33.4000 C   0  0  0  0  0  0  0  0  0  0  0  0
   30.2200   26.6300   33.1100 C   0  0  0  0  0  0  0  0  0  0  0  0
   29.2400   26.6600   34.1000 C   0  0  0  0  0  0  0  0  0  0  0  0
   27.9300   26.2600   33.8100 C   0  0  0  0  0  0  0  0  0  0  0  0
   27.5200   25.7100   32.6100 N   0  0  0  0  0  0  0  0  0  0  0  0
   23.2681   26.0067   35.2994 C   0  0  0  0  0  0  0  0  0  0  0  0
   22.7923   26.0688   34.0256 N   0  0  0  0  0  0  0  0  0  0  0  0
   21.4693   26.0327   33.7399 C   0  0  0  0  0  0  0  0  0  0  0  0
   20.5312   25.9659   34.7664 C   0  0  0  0  0  0  0  0  0  0  0  0
   19.1772   25.9669   34.4389 O   0  0  0  0  0  0  0  0  0  0  0  0
   18.1907   26.0172   35.4152 C   0  0  0  0  0  0  0  0  0  0  0  0
   16.9799   26.0494   35.0677 O   0  0  0  0  0  0  0  0  0  0  0  0
   18.5551   26.0510   36.8027 N   0  0  0  0  0  0  0  0  0  0  0  0
   17.5107   26.1839   37.8216 C   0  0  0  0  0  0  0  0  0  0  0  0
   19.9432   25.8195   37.2289 C   0  0  0  0  0  0  0  0  0  0  0  0
   20.9629   25.9095   36.1055 C   0  0  0  0  0  0  0  0  0  0  0  0
   22.3572   25.8902   36.3804 C   0  0  0  0  0  0  0  0  0  0  0  0
   22.8761   25.7841   37.7985 C   0  0  0  0  0  0  0  0  0  0  0  0
   24.9751   26.6014   36.4106 H   0  0  0  0  0  0  0  0  0  0  0  0
   31.0673   27.9419   36.6393 H   0  0  0  0  0  0  0  0  0  0  0  0
   32.8482   27.8887   34.9209 H   0  0  0  0  0  0  0  0  0  0  0  0
   32.2640   27.1264   32.6235 H   0  0  0  0  0  0  0  0  0  0  0  0
   30.0101   26.3033   32.1004 H   0  0  0  0  0  0  0  0  0  0  0  0
   28.1316   25.0436   32.0891 H   0  0  0  0  0  0  0  0  0  0  0  0
   26.6933   26.1020   32.1060 H   0  0  0  0  0  0  0  0  0  0  0  0
   21.1445   26.0796   32.7084 H   0  0  0  0  0  0  0  0  0  0  0  0
   16.9746   27.1479   37.6846 H   0  0  0  0  0  0  0  0  0  0  0  0
   17.9443   26.1646   38.8448 H   0  0  0  0  0  0  0  0  0  0  0  0
   16.7878   25.3444   37.7332 H   0  0  0  0  0  0  0  0  0  0  0  0
   20.2042   26.5747   38.0027 H   0  0  0  0  0  0  0  0  0  0  0  0
   20.0046   24.8073   37.6857 H   0  0  0  0  0  0  0  0  0  0  0  0
   22.1736   25.2463   38.4659 H   0  0  0  0  0  0  0  0  0  0  0  0
   23.0555   26.8023   38.2039 H   0  0  0  0  0  0  0  0  0  0  0  0
   23.8212   25.2020   37.8315 H   0  0  0  0  0  0  0  0  0  0  0  0
  1  2  1  0
  2  3  2  0
  2  4  1  0
  4  5  2  0
  5  6  1  0
  6  7  2  0
  7  8  1  0
  8  9  2  0
  9 10  1  0
 10 11  2  0
 11 12  1  0
 12 13  2  0
 13 14  1  0
  1 15  1  0
 15 16  2  0
 16 17  1  0
 17 18  2  0
 18 19  1  0
 19 20  1  0
 20 21  2  0
 20 22  1  0
 22 23  1  0
 22 24  1  0
 24 25  1  0
 25 26  2  0
 26 27  1  0
 13  4  1  0
 26 15  1  0
 12  7  1  0
 25 18  1  0
  1 28  1  0
  8 29  1  0
  9 30  1  0
 10 31  1  0
 11 32  1  0
 14 33  1  0
 14 34  1  0
 17 35  1  0
 23 36  1  0
 23 37  1  0
 23 38  1  0
 24 39  1  0
 24 40  1  0
 27 41  1  0
 27 42  1  0
 27 43  1  0
M  END
$$$$
confid_7
     RDKit          3D

 43 46  0  0  0  0  0  0  0  0999 V2000
   24.6900   26.1200   35.5300 N   0  0  0  0  0  0  0  0  0  0  0  0
   25.6600   25.6700   34.6600 C   0  0  0  0  0  0  0  0  0  0  0  0
   25.2400   25.0100   33.7200 O   0  0  0  0  0  0  0  0  0  0  0  0
   27.0300   26.2200   34.8800 C   0  0  0  0  0  0  0  0  0  0  0  0
   27.3500   26.7300   36.0700 N   0  0  0  0  0  0  0  0  0  0  0  0
   28.5700   27.1800   36.3300 N   0  0  0  0  0  0  0  0  0  0  0  0
   29.5300   27.1100   35.3900 C   0  0  0  0  0  0  0  0  0  0  0  0
   30.8300   27.5700   35.6500 C   0  0  0  0  0  0  0  0  0  0  0  0
   31.8500   27.5400   34.6900 C   0  0  0  0  0  0  0  0  0  0  0  0
   31.5100   27.1200   33.4000 C   0  0  0  0  0  0  0  0  0  0  0  0
   30.2200   26.6300   33.1100 C   0  0  0  0  0  0  0  0  0  0  0  0
   29.2400   26.6600   34.1000 C   0  0  0  0  0  0  0  0  0  0  0  0
   27.9300   26.2600   33.8100 C   0  0  0  0  0  0  0  0  0  0  0  0
   27.5200   25.7100   32.6100 N   0  0  0  0  0  0  0  0  0  0  0  0
   23.5007   25.3791   35.8891 C   0  0  0  0  0  0  0  0  0  0  0  0
   23.0712   24.3705   35.0830 N   0  0  0  0  0  0  0  0  0  0  0  0
   21.9404   23.6683   35.3288 C   0  0  0  0  0  0  0  0  0  0  0  0
   21.1491   23.9768   36.4298 C   0  0  0  0  0  0  0  0  0  0  0  0
   19.9715   23.2595   36.6283 O   0  0  0  0  0  0  0  0  0  0  0  0
   19.0843   23.5818   37.6459 C   0  0  0  0  0  0  0  0  0  0  0  0
   18.0113   22.9282   37.7585 O   0  0  0  0  0  0  0  0  0  0  0  0
   19.3845   24.6605   38.5449 N   0  0  0  0  0  0  0  0  0  0  0  0
   18.4167   25.0293   39.5808 C   0  0  0  0  0  0  0  0  0  0  0  0
   20.6990   25.3187   38.5328 C   0  0  0  0  0  0  0  0  0  0  0  0
   21.5447   25.0024   37.3099 C   0  0  0  0  0  0  0  0  0  0  0  0
   22.7630   25.6940   37.0614 C   0  0  0  0  0  0  0  0  0  0  0  0
   23.2728   26.7582   38.0109 C   0  0  0  0  0  0  0  0  0  0  0  0
   24.8352   27.0586   35.9638 H   0  0  0  0  0  0  0  0  0  0  0  0
   31.0672   27.9417   36.6393 H   0  0  0  0  0  0  0  0  0  0  0  0
   32.8482   27.8886   34.9211 H   0  0  0  0  0  0  0  0  0  0  0  0
   32.2640   27.1261   32.6235 H   0  0  0  0  0  0  0  0  0  0  0  0
   30.0101   26.3033   32.1003 H   0  0  0  0  0  0  0  0  0  0  0  0
   28.1317   25.0439   32.0889 H   0  0  0  0  0  0  0  0  0  0  0  0
   26.6937   26.1026   32.1058 H   0  0  0  0  0  0  0  0  0  0  0  0
   21.6451   22.8775   34.6508 H   0  0  0  0  0  0  0  0  0  0  0  0
   18.1862   24.1462   40.2131 H   0  0  0  0  0  0  0  0  0  0  0  0
   18.8163   25.8332   40.2363 H   0  0  0  0  0  0  0  0  0  0  0  0
   17.4823   25.3966   39.1054 H   0  0  0  0  0  0  0  0  0  0  0  0
   21.2575   25.0034   39.4425 H   0  0  0  0  0  0  0  0  0  0  0  0
   20.5385   26.4197   38.5760 H   0  0  0  0  0  0  0  0  0  0  0  0
   23.0445   27.7640   37.5999 H   0  0  0  0  0  0  0  0  0  0  0  0
   22.8363   26.6823   39.0257 H   0  0  0  0  0  0  0  0  0  0  0  0
   24.3690   26.6554   38.1532 H   0  0  0  0  0  0  0  0  0  0  0  0
  1  2  1  0
  2  3  2  0
  2  4  1  0
  4  5  2  0
  5  6  1  0
  6  7  2  0
  7  8  1  0
  8  9  2  0
  9 10  1  0
 10 11  2  0
 11 12  1  0
 12 13  2  0
 13 14  1  0
  1 15  1  0
 15 16  2  0
 16 17  1  0
 17 18  2  0
 18 19  1  0
 19 20  1  0
 20 21  2  0
 20 22  1  0
 22 23  1  0
 22 24  1  0
 24 25  1  0
 25 26  2  0
 26 27  1  0
 13  4  1  0
 26 15  1  0
 12  7  1  0
 25 18  1  0
  1 28  1  0
  8 29  1  0
  9 30  1  0
 10 31  1  0
 11 32  1  0
 14 33  1  0
 14 34  1  0
 17 35  1  0
 23 36  1  0
 23 37  1  0
 23 38  1  0
 24 39  1  0
 24 40  1  0
 27 41  1  0
 27 42  1  0
 27 43  1  0
M  END
$$$$
confid_8
     RDKit          3D

 43 46  0  0  0  0  0  0  0  0999 V2000
   24.6900   26.1200   35.5300 N   0  0  0  0  0  0  0  0  0  0  0  0
   25.6600   25.6700   34.6600 C   0  0  0  0  0  0  0  0  0  0  0  0
   25.2400   25.0100   33.7200 O   0  0  0  0  0  0  0  0  0  0  0  0
   27.0300   26.2200   34.8800 C   0  0  0  0  0  0  0  0  0  0  0  0
   27.3500   26.7300   36.0700 N   0  0  0  0  0  0  0  0  0  0  0  0
   28.5700   27.1800   36.3300 N   0  0  0  0  0  0  0  0  0  0  0  0
   29.5300   27.1100   35.3900 C   0  0  0  0  0  0  0  0  0  0  0  0
   30.8300   27.5700   35.6500 C   0  0  0  0  0  0  0  0  0  0  0  0
   31.8500   27.5400   34.6900 C   0  0  0  0  0  0  0  0  0  0  0  0
   31.5100   27.1200   33.4000 C   0  0  0  0  0  0  0  0  0  0  0  0
   30.2200   26.6300   33.1100 C   0  0  0  0  0  0  0  0  0  0  0  0
   29.2400   26.6600   34.1000 C   0  0  0  0  0  0  0  0  0  0  0  0
   27.9300   26.2600   33.8100 C   0  0  0  0  0  0  0  0  0  0  0  0
   27.5200   25.7100   32.6100 N   0  0  0  0  0  0  0  0  0  0  0  0
   23.5892   25.2982   35.9835 C   0  0  0  0  0  0  0  0  0  0  0  0
   23.5205   24.0013   35.5740 N   0  0  0  0  0  0  0  0  0  0  0  0
   22.5357   23.1589   35.9661 C   0  0  0  0  0  0  0  0  0  0  0  0
   21.5401   23.6004   36.8307 C   0  0  0  0  0  0  0  0  0  0  0  0
   20.5507   22.6986   37.2179 O   0  0  0  0  0  0  0  0  0  0  0  0
   19.5263   23.0659   38.0801 C   0  0  0  0  0  0  0  0  0  0  0  0
   18.6629   22.2078   38.4074 O   0  0  0  0  0  0  0  0  0  0  0  0
   19.4575   24.4079   38.5908 N   0  0  0  0  0  0  0  0  0  0  0  0
   18.3636   24.7822   39.4904 C   0  0  0  0  0  0  0  0  0  0  0  0
   20.4626   25.4214   38.2389 C   0  0  0  0  0  0  0  0  0  0  0  0
   21.5555   24.9306   37.2989 C   0  0  0  0  0  0  0  0  0  0  0  0
   22.6016   25.8014   36.8745 C   0  0  0  0  0  0  0  0  0  0  0  0
   22.6970   27.2362   37.3667 C   0  0  0  0  0  0  0  0  0  0  0  0
   24.8102   27.0788   35.9229 H   0  0  0  0  0  0  0  0  0  0  0  0
   31.0672   27.9416   36.6393 H   0  0  0  0  0  0  0  0  0  0  0  0
   32.8483   27.8885   34.9212 H   0  0  0  0  0  0  0  0  0  0  0  0
   32.2640   27.1262   32.6235 H   0  0  0  0  0  0  0  0  0  0  0  0
   30.0099   26.3029   32.1005 H   0  0  0  0  0  0  0  0  0  0  0  0
   26.6947   26.1033   32.1046 H   0  0  0  0  0  0  0  0  0  0  0  0
   28.1289   25.0379   32.0930 H   0  0  0  0  0  0  0  0  0  0  0  0
   22.5310   22.1352   35.6065 H   0  0  0  0  0  0  0  0  0  0  0  0
   18.4074   24.1649   40.4120 H   0  0  0  0  0  0  0  0  0  0  0  0
   17.3885   24.6210   38.9839 H   0  0  0  0  0  0  0  0  0  0  0  0
   18.4312   25.8536   39.7787 H   0  0  0  0  0  0  0  0  0  0  0  0
   20.9402   25.7788   39.1838 H   0  0  0  0  0  0  0  0  0  0  0  0
   19.9380   26.2788   37.7523 H   0  0  0  0  0  0  0  0  0  0  0  0
   23.6536   27.3740   37.9217 H   0  0  0  0  0  0  0  0  0  0  0  0
   22.6611   27.9324   36.4987 H   0  0  0  0  0  0  0  0  0  0  0  0
   21.8835   27.5405   38.0557 H   0  0  0  0  0  0  0  0  0  0  0  0
  1  2  1  0
  2  3  2  0
  2  4  1  0
  4  5  2  0
  5  6  1  0
  6  7  2  0
  7  8  1  0
  8  9  2  0
  9 10  1  0
 10 11  2  0
 11 12  1  0
 12 13  2  0
 13 14  1  0
  1 15  1  0
 15 16  2  0
 16 17  1  0
 17 18  2  0
 18 19  1  0
 19 20  1  0
 20 21  2  0
 20 22  1  0
 22 23  1  0
 22 24  1  0
 24 25  1  0
 25 26  2  0
 26 27  1  0
 13  4  1  0
 26 15  1  0
 12  7  1  0
 25 18  1  0
  1 28  1  0
  8 29  1  0
  9 30  1  0
 10 31  1  0
 11 32  1  0
 14 33  1  0
 14 34  1  0
 17 35  1  0
 23 36  1  0
 23 37  1  0
 23 38  1  0
 24 39  1  0
 24 40  1  0
 27 41  1  0
 27 42  1  0
 27 43  1  0
M  END
$$$$
