confid_0
     RDKit          3D

 42 45  0  0  0  0  0  0  0  0999 V2000
   25.3300   26.2600   34.7600 N   0  0  0  0  0  0  0  0  0  0  0  0
   26.1200   25.9200   33.6900 C   0  0  0  0  0  0  0  0  0  0  0  0
   25.6300   25.1100   32.9400 O   0  0  0  0  0  0  0  0  0  0  0  0
   27.5200   26.3800   33.4600 C   0  0  0  0  0  0  0  0  0  0  0  0
   28.1600   26.6300   34.6100 N   0  0  0  0  0  0  0  0  0  0  0  0
   29.4800   26.8500   34.5700 N   0  0  0  0  0  0  0  0  0  0  0  0
   30.1900   26.7800   33.4400 C   0  0  0  0  0  0  0  0  0  0  0  0
   31.5600   27.0500   33.5000 C   0  0  0  0  0  0  0  0  0  0  0  0
   32.2700   27.2400   32.3100 C   0  0  0  0  0  0  0  0  0  0  0  0
   31.6100   27.2500   31.0800 C   0  0  0  0  0  0  0  0  0  0  0  0
   30.2700   26.8700   31.0600 C   0  0  0  0  0  0  0  0  0  0  0  0
   29.5100   26.6900   32.2300 C   0  0  0  0  0  0  0  0  0  0  0  0
   28.1400   26.4100   32.2000 C   0  0  0  0  0  0  0  0  0  0  0  0
   27.4300   26.1300   31.0500 N   0  0  0  0  0  0  0  0  0  0  0  0
   24.1742   25.5311   35.2258 C   0  0  0  0  0  0  0  0  0  0  0  0
   23.9358   24.2562   34.7901 N   0  0  0  0  0  0  0  0  0  0  0  0
   22.8628   23.5645   35.2443 C   0  0  0  0  0  0  0  0  0  0  0  0
   22.4721   22.1693   34.8593 C   0  0  0  0  0  0  0  0  0  0  0  0
   21.2576   21.9440   35.6474 N   0  0  0  0  0  0  0  0  0  0  0  0
   20.4622   20.7234   35.6458 C   0  0  0  0  0  0  0  0  0  0  0  0
   20.9813   23.1108   36.4161 C   0  0  0  0  0  0  0  0  0  0  0  0
   20.0011   23.2282   37.1984 O   0  0  0  0  0  0  0  0  0  0  0  0
   21.9913   24.1134   36.1543 C   0  0  0  0  0  0  0  0  0  0  0  0
   22.1793   25.4078   36.6475 C   0  0  0  0  0  0  0  0  0  0  0  0
   23.2991   26.1252   36.1709 C   0  0  0  0  0  0  0  0  0  0  0  0
   23.5373   27.3881   36.6099 F   0  0  0  0  0  0  0  0  0  0  0  0
   21.2250   26.0008   37.6453 C   0  0  0  0  0  0  0  0  0  0  0  0
   25.6096   27.1159   35.2903 H   0  0  0  0  0  0  0  0  0  0  0  0
   32.0668   27.1425   34.4530 H   0  0  0  0  0  0  0  0  0  0  0  0
   33.3288   27.4608   32.3494 H   0  0  0  0  0  0  0  0  0  0  0  0
   32.1515   27.4335   30.1608 H   0  0  0  0  0  0  0  0  0  0  0  0
   29.8039   26.7906   30.0880 H   0  0  0  0  0  0  0  0  0  0  0  0
   27.5768   26.6942   30.1847 H   0  0  0  0  0  0  0  0  0  0  0  0
   26.8611   25.2624   30.9527 H   0  0  0  0  0  0  0  0  0  0  0  0
   22.2468   22.1107   33.7734 H   0  0  0  0  0  0  0  0  0  0  0  0
   23.2633   21.4462   35.1501 H   0  0  0  0  0  0  0  0  0  0  0  0
   20.4325   20.2966   36.6700 H   0  0  0  0  0  0  0  0  0  0  0  0
   20.9071   19.9757   34.9558 H   0  0  0  0  0  0  0  0  0  0  0  0
   19.4287   20.9525   35.3120 H   0  0  0  0  0  0  0  0  0  0  0  0
   21.2119   25.3779   38.5642 H   0  0  0  0  0  0  0  0  0  0  0  0
   20.2038   26.0329   37.2111 H   0  0  0  0  0  0  0  0  0  0  0  0
   21.5125   27.0339   37.9308 H   0  0  0  0  0  0  0  0  0  0  0  0
  1  2  1  0
  2  3  2  0
  2  4  1  0
  4  5  2  0
  5  6  1  0
  6  7  2  0
  7  8  1  0
  8  9  2  0
  9 10  1  0
 10 11  2  0
 11 12  1  0
 12 13  2  0
 13 14  1  0
  1 15  1  0
 15 16  2  0
 16 17  1  0
 17 18  1  0
 18 19  1  0
 19 20  1  0
 19 21  1  0
 21 22  2  0
 21 23  1  0
 23 24  1  0
 24 25  2  0
 25 26  1  0
 24 27  1  0
 13  4  1  0
 25 15  1  0
 12  7  1  0
 23 17  2  0
  1 28  1  0
  8 29  1  0
  9 30  1  0
 10 31  1  0
 11 32  1  0
 14 33  1  0
 14 34  1  0
 18 35  1  0
 18 36  1  0
 20 37  1  0
 20 38  1  0
 20 39  1  0
 27 40  1  0
 27 41  1  0
 27 42  1  0
M  END
$$$$
confid_1
     RDKit          3D

 42 45  0  0  0  0  0  0  0  0999 V2000
   25.3300   26.2600   34.7600 N   0  0  0  0  0  0  0  0  0  0  0  0
   26.1200   25.9200   33.6900 C   0  0  0  0  0  0  0  0  0  0  0  0
   25.6300   25.1100   32.9400 O   0  0  0  0  0  0  0  0  0  0  0  0
   27.5200   26.3800   33.4600 C   0  0  0  0  0  0  0  0  0  0  0  0
   28.1600   26.6300   34.6100 N   0  0  0  0  0  0  0  0  0  0  0  0
   29.4800   26.8500   34.5700 N   0  0  0  0  0  0  0  0  0  0  0  0
   30.1900   26.7800   33.4400 C   0  0  0  0  0  0  0  0  0  0  0  0
   31.5600   27.0500   33.5000 C   0  0  0  0  0  0  0  0  0  0  0  0
   32.2700   27.2400   32.3100 C   0  0  0  0  0  0  0  0  0  0  0  0
   31.6100   27.2500   31.0800 C   0  0  0  0  0  0  0  0  0  0  0  0
   30.2700   26.8700   31.0600 C   0  0  0  0  0  0  0  0  0  0  0  0
   29.5100   26.6900   32.2300 C   0  0  0  0  0  0  0  0  0  0  0  0
   28.1400   26.4100   32.2000 C   0  0  0  0  0  0  0  0  0  0  0  0
   27.4300   26.1300   31.0500 N   0  0  0  0  0  0  0  0  0  0  0  0
   23.8968   26.1024   34.8234 C   0  0  0  0  0  0  0  0  0  0  0  0
   23.1779   25.8394   33.6892 N   0  0  0  0  0  0  0  0  0  0  0  0
   21.8300   25.7124   33.7448 C   0  0  0  0  0  0  0  0  0  0  0  0
   20.9128   25.4209   32.5952 C   0  0  0  0  0  0  0  0  0  0  0  0
   19.5932   25.3977   33.2316 N   0  0  0  0  0  0  0  0  0  0  0  0
   18.3298   25.1469   32.5508 C   0  0  0  0  0  0  0  0  0  0  0  0
   19.7462   25.6544   34.6242 C   0  0  0  0  0  0  0  0  0  0  0  0
   18.7920   25.7001   35.4453 O   0  0  0  0  0  0  0  0  0  0  0  0
   21.1472   25.8487   34.9297 C   0  0  0  0  0  0  0  0  0  0  0  0
   21.8179   26.1254   36.1246 C   0  0  0  0  0  0  0  0  0  0  0  0
   23.2231   26.2567   36.0619 C   0  0  0  0  0  0  0  0  0  0  0  0
   23.9344   26.5224   37.1879 F   0  0  0  0  0  0  0  0  0  0  0  0
   21.0654   26.2753   37.4165 C   0  0  0  0  0  0  0  0  0  0  0  0
   25.7977   26.7207   35.5725 H   0  0  0  0  0  0  0  0  0  0  0  0
   32.0667   27.1429   34.4530 H   0  0  0  0  0  0  0  0  0  0  0  0
   33.3284   27.4627   32.3495 H   0  0  0  0  0  0  0  0  0  0  0  0
   32.1496   27.4414   30.1613 H   0  0  0  0  0  0  0  0  0  0  0  0
   29.7983   26.8254   30.0886 H   0  0  0  0  0  0  0  0  0  0  0  0
   27.8914   25.7241   30.2071 H   0  0  0  0  0  0  0  0  0  0  0  0
   26.4123   26.3491   30.9739 H   0  0  0  0  0  0  0  0  0  0  0  0
   21.1461   24.4311   32.1490 H   0  0  0  0  0  0  0  0  0  0  0  0
   20.9641   26.2309   31.8370 H   0  0  0  0  0  0  0  0  0  0  0  0
   18.5043   24.9751   31.4677 H   0  0  0  0  0  0  0  0  0  0  0  0
   17.8444   24.2480   32.9851 H   0  0  0  0  0  0  0  0  0  0  0  0
   17.6597   26.0232   32.6738 H   0  0  0  0  0  0  0  0  0  0  0  0
   20.3380   27.1095   37.3296 H   0  0  0  0  0  0  0  0  0  0  0  0
   20.5183   25.3355   37.6405 H   0  0  0  0  0  0  0  0  0  0  0  0
   21.7427   26.4931   38.2681 H   0  0  0  0  0  0  0  0  0  0  0  0
  1  2  1  0
  2  3  2  0
  2  4  1  0
  4  5  2  0
  5  6  1  0
  6  7  2  0
  7  8  1  0
  8  9  2  0
  9 10  1  0
 10 11  2  0
 11 12  1  0
 12 13  2  0
 13 14  1  0
  1 15  1  0
 15 16  2  0
 16 17  1  0
 17 18  1  0
 18 19  1  0
 19 20  1  0
 19 21  1  0
 21 22  2  0
 21 23  1  0
 23 24  1  0
 24 25  2  0
 25 26  1  0
 24 27  1  0
 13  4  1  0
 25 15  1  0
 12  7  1  0
 23 17  2  0
  1 28  1  0
  8 29  1  0
  9 30  1  0
 10 31  1  0
 11 32  1  0
 14 33  1  0
 14 34  1  0
 18 35  1  0
 18 36  1  0
 20 37  1  0
 20 38  1  0
 20 39  1  0
 27 40  1  0
 27 41  1  0
 27 42  1  0
M  END
$$$$
confid_2
     RDKit          3D

 42 45  0  0  0  0  0  0  0  0999 V2000
   25.3300   26.2600   34.7600 N   0  0  0  0  0  0  0  0  0  0  0  0
   26.1200   25.9200   33.6900 C   0  0  0  0  0  0  0  0  0  0  0  0
   25.6300   25.1100   32.9400 O   0  0  0  0  0  0  0  0  0  0  0  0
   27.5200   26.3800   33.4600 C   0  0  0  0  0  0  0  0  0  0  0  0
   28.1600   26.6300   34.6100 N   0  0  0  0  0  0  0  0  0  0  0  0
   29.4800   26.8500   34.5700 N   0  0  0  0  0  0  0  0  0  0  0  0
   30.1900   26.7800   33.4400 C   0  0  0  0  0  0  0  0  0  0  0  0
   31.5600   27.0500   33.5000 C   0  0  0  0  0  0  0  0  0  0  0  0
   32.2700   27.2400   32.3100 C   0  0  0  0  0  0  0  0  0  0  0  0
   31.6100   27.2500   31.0800 C   0  0  0  0  0  0  0  0  0  0  0  0
   30.2700   26.8700   31.0600 C   0  0  0  0  0  0  0  0  0  0  0  0
   29.5100   26.6900   32.2300 C   0  0  0  0  0  0  0  0  0  0  0  0
   28.1400   26.4100   32.2000 C   0  0  0  0  0  0  0  0  0  0  0  0
   27.4300   26.1300   31.0500 N   0  0  0  0  0  0  0  0  0  0  0  0
   24.0009   25.7686   35.0522 C   0  0  0  0  0  0  0  0  0  0  0  0
   23.3976   24.8516   34.2350 N   0  0  0  0  0  0  0  0  0  0  0  0
   22.1531   24.3937   34.5129 C   0  0  0  0  0  0  0  0  0  0  0  0
   21.3704   23.3952   33.7142 C   0  0  0  0  0  0  0  0  0  0  0  0
   20.1206   23.2835   34.4708 N   0  0  0  0  0  0  0  0  0  0  0  0
   18.9932   22.4297   34.1211 C   0  0  0  0  0  0  0  0  0  0  0  0
   20.1866   24.1448   35.6032 C   0  0  0  0  0  0  0  0  0  0  0  0
   19.2635   24.2729   36.4507 O   0  0  0  0  0  0  0  0  0  0  0  0
   21.4606   24.8308   35.6160 C   0  0  0  0  0  0  0  0  0  0  0  0
   22.0145   25.7658   36.4947 C   0  0  0  0  0  0  0  0  0  0  0  0
   23.3124   26.2403   36.2008 C   0  0  0  0  0  0  0  0  0  0  0  0
   23.9043   27.1496   37.0179 F   0  0  0  0  0  0  0  0  0  0  0  0
   21.2520   26.2395   37.6998 C   0  0  0  0  0  0  0  0  0  0  0  0
   25.7292   26.9666   35.4177 H   0  0  0  0  0  0  0  0  0  0  0  0
   32.0668   27.1425   34.4530 H   0  0  0  0  0  0  0  0  0  0  0  0
   33.3288   27.4608   32.3494 H   0  0  0  0  0  0  0  0  0  0  0  0
   32.1515   27.4335   30.1608 H   0  0  0  0  0  0  0  0  0  0  0  0
   29.8039   26.7906   30.0880 H   0  0  0  0  0  0  0  0  0  0  0  0
   27.5768   26.6941   30.1847 H   0  0  0  0  0  0  0  0  0  0  0  0
   26.8608   25.2627   30.9528 H   0  0  0  0  0  0  0  0  0  0  0  0
   21.1721   23.7799   32.6915 H   0  0  0  0  0  0  0  0  0  0  0  0
   21.8959   22.4172   33.6859 H   0  0  0  0  0  0  0  0  0  0  0  0
   18.0888   23.0531   33.9616 H   0  0  0  0  0  0  0  0  0  0  0  0
   19.2122   21.8663   33.1895 H   0  0  0  0  0  0  0  0  0  0  0  0
   18.8031   21.7082   34.9429 H   0  0  0  0  0  0  0  0  0  0  0  0
   20.3041   26.7187   37.3765 H   0  0  0  0  0  0  0  0  0  0  0  0
   21.8295   26.9791   38.2921 H   0  0  0  0  0  0  0  0  0  0  0  0
   21.0189   25.3754   38.3568 H   0  0  0  0  0  0  0  0  0  0  0  0
  1  2  1  0
  2  3  2  0
  2  4  1  0
  4  5  2  0
  5  6  1  0
  6  7  2  0
  7  8  1  0
  8  9  2  0
  9 10  1  0
 10 11  2  0
 11 12  1  0
 12 13  2  0
 13 14  1  0
  1 15  1  0
 15 16  2  0
 16 17  1  0
 17 18  1  0
 18 19  1  0
 19 20  1  0
 19 21  1  0
 21 22  2  0
 21 23  1  0
 23 24  1  0
 24 25  2  0
 25 26  1  0
 24 27  1  0
 13  4  1  0
 25 15  1  0
 12  7  1  0
 23 17  2  0
  1 28  1  0
  8 29  1  0
  9 30  1  0
 10 31  1  0
 11 32  1  0
 14 33  1  0
 14 34  1  0
 18 35  1  0
 18 36  1  0
 20 37  1  0
 20 38  1  0
 20 39  1  0
 27 40  1  0
 27 41  1  0
 27 42  1  0
M  END
$$$$
