confid_0
     RDKit          3D

 44 48  0  0  0  0  0  0  0  0999 V2000
   24.2000   26.2400   35.6900 N   0  0  0  0  0  0  0  0  0  0  0  0
   24.8500   26.2800   34.4800 C   0  0  0  0  0  0  0  0  0  0  0  0
   24.3100   25.7400   33.5400 O   0  0  0  0  0  0  0  0  0  0  0  0
   26.1800   26.9700   34.4700 C   0  0  0  0  0  0  0  0  0  0  0  0
   26.6500   27.6000   35.5500 N   0  0  0  0  0  0  0  0  0  0  0  0
   27.7900   28.2700   35.6200 N   0  0  0  0  0  0  0  0  0  0  0  0
   28.5400   28.3000   34.5100 C   0  0  0  0  0  0  0  0  0  0  0  0
   29.7700   28.9400   34.5600 C   0  0  0  0  0  0  0  0  0  0  0  0
   30.7000   28.8900   33.5000 C   0  0  0  0  0  0  0  0  0  0  0  0
   30.3700   28.1400   32.3700 C   0  0  0  0  0  0  0  0  0  0  0  0
   29.1200   27.5200   32.2800 C   0  0  0  0  0  0  0  0  0  0  0  0
   28.2100   27.6100   33.3300 C   0  0  0  0  0  0  0  0  0  0  0  0
   26.9700   26.9700   33.3100 C   0  0  0  0  0  0  0  0  0  0  0  0
   26.5300   26.2400   32.2200 N   0  0  0  0  0  0  0  0  0  0  0  0
   22.7879   26.0142   35.8276 C   0  0  0  0  0  0  0  0  0  0  0  0
   22.4173   25.0150   36.6076 N   0  0  0  0  0  0  0  0  0  0  0  0
   21.0912   24.5331   36.9175 C   0  0  0  0  0  0  0  0  0  0  0  0
   20.0728   25.3554   36.7480 C   0  0  0  0  0  0  0  0  0  0  0  0
   20.3210   26.7078   36.8639 O   0  0  0  0  0  0  0  0  0  0  0  0
   20.4076   27.2051   35.5458 C   0  0  0  0  0  0  0  0  0  0  0  0
   20.0192   28.6850   35.5042 C   0  0  0  0  0  0  0  0  0  0  0  0
   19.4307   26.3068   34.8251 C   0  0  0  0  0  0  0  0  0  0  0  0
   18.9123   26.3963   33.5312 C   0  0  0  0  0  0  0  0  0  0  0  0
   18.1388   25.3260   33.0474 C   0  0  0  0  0  0  0  0  0  0  0  0
   17.9366   24.1749   33.8384 C   0  0  0  0  0  0  0  0  0  0  0  0
   18.5017   24.0865   35.1220 C   0  0  0  0  0  0  0  0  0  0  0  0
   19.2082   25.1890   35.5997 C   0  0  0  0  0  0  0  0  0  0  0  0
   21.8328   26.9347   35.0809 C   0  0  0  0  0  0  0  0  0  0  0  0
   22.2416   27.5336   34.0497 O   0  0  0  0  0  0  0  0  0  0  0  0
   24.7706   26.1922   36.5648 H   0  0  0  0  0  0  0  0  0  0  0  0
   30.0498   29.4792   35.4573 H   0  0  0  0  0  0  0  0  0  0  0  0
   31.6569   29.3901   33.5753 H   0  0  0  0  0  0  0  0  0  0  0  0
   31.0715   28.0646   31.5492 H   0  0  0  0  0  0  0  0  0  0  0  0
   28.8856   26.9764   31.3746 H   0  0  0  0  0  0  0  0  0  0  0  0
   27.1524   25.5360   31.7653 H   0  0  0  0  0  0  0  0  0  0  0  0
   25.6748   26.5391   31.7006 H   0  0  0  0  0  0  0  0  0  0  0  0
   20.9275   23.4651   36.8483 H   0  0  0  0  0  0  0  0  0  0  0  0
   18.9935   28.8222   35.9083 H   0  0  0  0  0  0  0  0  0  0  0  0
   20.0454   29.0670   34.4617 H   0  0  0  0  0  0  0  0  0  0  0  0
   20.7253   29.2800   36.1217 H   0  0  0  0  0  0  0  0  0  0  0  0
   19.1147   27.2576   32.9085 H   0  0  0  0  0  0  0  0  0  0  0  0
   17.7196   25.3737   32.0508 H   0  0  0  0  0  0  0  0  0  0  0  0
   17.3664   23.3441   33.4436 H   0  0  0  0  0  0  0  0  0  0  0  0
   18.4007   23.1873   35.7155 H   0  0  0  0  0  0  0  0  0  0  0  0
  1  2  1  0
  2  3  2  0
  2  4  1  0
  4  5  2  0
  5  6  1  0
  6  7  2  0
  7  8  1  0
  8  9  2  0
  9 10  1  0
 10 11  2  0
 11 12  1  0
 12 13  2  0
 13 14  1  0
  1 15  1  0
 15 16  2  0
 16 17  1  0
 17 18  2  0
 18 19  1  0
 19 20  1  0
 20 21  1  0
 20 22  1  0
 22 23  2  0
 23 24  1  0
 24 25  2  0
 25 26  1  0
 26 27  2  0
 20 28  1  0
 28 29  2  0
 13  4  1  0
 28 15  1  0
 12  7  1  0
 27 18  1  0
 27 22  1  0
  1 30  1  0
  8 31  1  0
  9 32  1  0
 10 33  1  0
 11 34  1  0
 14 35  1  0
 14 36  1  0
 17 37  1  0
 21 38  1  0
 21 39  1  0
 21 40  1  0
 23 41  1  0
 24 42  1  0
 25 43  1  0
 26 44  1  0
M  END
$$$$
confid_1
     RDKit          3D

 44 48  0  0  0  0  0  0  0  0999 V2000
   24.2000   26.2400   35.6900 N   0  0  0  0  0  0  0  0  0  0  0  0
   24.8500   26.2800   34.4800 C   0  0  0  0  0  0  0  0  0  0  0  0
   24.3100   25.7400   33.5400 O   0  0  0  0  0  0  0  0  0  0  0  0
   26.1800   26.9700   34.4700 C   0  0  0  0  0  0  0  0  0  0  0  0
   26.6500   27.6000   35.5500 N   0  0  0  0  0  0  0  0  0  0  0  0
   27.7900   28.2700   35.6200 N   0  0  0  0  0  0  0  0  0  0  0  0
   28.5400   28.3000   34.5100 C   0  0  0  0  0  0  0  0  0  0  0  0
   29.7700   28.9400   34.5600 C   0  0  0  0  0  0  0  0  0  0  0  0
   30.7000   28.8900   33.5000 C   0  0  0  0  0  0  0  0  0  0  0  0
   30.3700   28.1400   32.3700 C   0  0  0  0  0  0  0  0  0  0  0  0
   29.1200   27.5200   32.2800 C   0  0  0  0  0  0  0  0  0  0  0  0
   28.2100   27.6100   33.3300 C   0  0  0  0  0  0  0  0  0  0  0  0
   26.9700   26.9700   33.3100 C   0  0  0  0  0  0  0  0  0  0  0  0
   26.5300   26.2400   32.2200 N   0  0  0  0  0  0  0  0  0  0  0  0
   23.1897   25.2727   36.0179 C   0  0  0  0  0  0  0  0  0  0  0  0
   22.0203   25.7424   36.4129 N   0  0  0  0  0  0  0  0  0  0  0  0
   20.8188   25.0292   36.7794 C   0  0  0  0  0  0  0  0  0  0  0  0
   20.9307   23.7676   37.1510 C   0  0  0  0  0  0  0  0  0  0  0  0
   22.1237   23.3764   37.7234 O   0  0  0  0  0  0  0  0  0  0  0  0
   22.8454   22.7103   36.7097 C   0  0  0  0  0  0  0  0  0  0  0  0
   23.8113   21.6917   37.3198 C   0  0  0  0  0  0  0  0  0  0  0  0
   21.7270   22.0775   35.9163 C   0  0  0  0  0  0  0  0  0  0  0  0
   21.7755   21.1294   34.8917 C   0  0  0  0  0  0  0  0  0  0  0  0
   20.5860   20.8297   34.2038 C   0  0  0  0  0  0  0  0  0  0  0  0
   19.3890   21.5089   34.5158 C   0  0  0  0  0  0  0  0  0  0  0  0
   19.3700   22.4898   35.5219 C   0  0  0  0  0  0  0  0  0  0  0  0
   20.5484   22.7187   36.2304 C   0  0  0  0  0  0  0  0  0  0  0  0
   23.5371   23.7958   35.8953 C   0  0  0  0  0  0  0  0  0  0  0  0
   24.4632   23.4484   35.1136 O   0  0  0  0  0  0  0  0  0  0  0  0
   24.3043   27.0489   36.3440 H   0  0  0  0  0  0  0  0  0  0  0  0
   30.0500   29.4789   35.4574 H   0  0  0  0  0  0  0  0  0  0  0  0
   31.6575   29.3889   33.5759 H   0  0  0  0  0  0  0  0  0  0  0  0
   31.0739   28.0595   31.5517 H   0  0  0  0  0  0  0  0  0  0  0  0
   28.8953   26.9542   31.3856 H   0  0  0  0  0  0  0  0  0  0  0  0
   26.6268   26.6227   31.2535 H   0  0  0  0  0  0  0  0  0  0  0  0
   26.3228   25.2206   32.3146 H   0  0  0  0  0  0  0  0  0  0  0  0
   19.8902   25.3723   36.3411 H   0  0  0  0  0  0  0  0  0  0  0  0
   23.2531   20.9637   37.9466 H   0  0  0  0  0  0  0  0  0  0  0  0
   24.3491   21.1364   36.5224 H   0  0  0  0  0  0  0  0  0  0  0  0
   24.5562   22.2112   37.9595 H   0  0  0  0  0  0  0  0  0  0  0  0
   22.7067   20.6502   34.6200 H   0  0  0  0  0  0  0  0  0  0  0  0
   20.5953   20.0936   33.4106 H   0  0  0  0  0  0  0  0  0  0  0  0
   18.4869   21.2931   33.9583 H   0  0  0  0  0  0  0  0  0  0  0  0
   18.4724   23.0565   35.7319 H   0  0  0  0  0  0  0  0  0  0  0  0
  1  2  1  0
  2  3  2  0
  2  4  1  0
  4  5  2  0
  5  6  1  0
  6  7  2  0
  7  8  1  0
  8  9  2  0
  9 10  1  0
 10 11  2  0
 11 12  1  0
 12 13  2  0
 13 14  1  0
  1 15  1  0
 15 16  2  0
 16 17  1  0
 17 18  2  0
 18 19  1  0
 19 20  1  0
 20 21  1  0
 20 22  1  0
 22 23  2  0
 23 24  1  0
 24 25  2  0
 25 26  1  0
 26 27  2  0
 20 28  1  0
 28 29  2  0
 13  4  1  0
 28 15  1  0
 12  7  1  0
 27 18  1  0
 27 22  1  0
  1 30  1  0
  8 31  1  0
  9 32  1  0
 10 33  1  0
 11 34  1  0
 14 35  1  0
 14 36  1  0
 17 37  1  0
 21 38  1  0
 21 39  1  0
 21 40  1  0
 23 41  1  0
 24 42  1  0
 25 43  1  0
 26 44  1  0
M  END
$$$$
confid_2
     RDKit          3D

 44 48  0  0  0  0  0  0  0  0999 V2000
   24.2000   26.2400   35.6900 N   0  0  0  0  0  0  0  0  0  0  0  0
   24.8500   26.2800   34.4800 C   0  0  0  0  0  0  0  0  0  0  0  0
   24.3100   25.7400   33.5400 O   0  0  0  0  0  0  0  0  0  0  0  0
   26.1800   26.9700   34.4700 C   0  0  0  0  0  0  0  0  0  0  0  0
   26.6500   27.6000   35.5500 N   0  0  0  0  0  0  0  0  0  0  0  0
   27.7900   28.2700   35.6200 N   0  0  0  0  0  0  0  0  0  0  0  0
   28.5400   28.3000   34.5100 C   0  0  0  0  0  0  0  0  0  0  0  0
   29.7700   28.9400   34.5600 C   0  0  0  0  0  0  0  0  0  0  0  0
   30.7000   28.8900   33.5000 C   0  0  0  0  0  0  0  0  0  0  0  0
   30.3700   28.1400   32.3700 C   0  0  0  0  0  0  0  0  0  0  0  0
   29.1200   27.5200   32.2800 C   0  0  0  0  0  0  0  0  0  0  0  0
   28.2100   27.6100   33.3300 C   0  0  0  0  0  0  0  0  0  0  0  0
   26.9700   26.9700   33.3100 C   0  0  0  0  0  0  0  0  0  0  0  0
   26.5300   26.2400   32.2200 N   0  0  0  0  0  0  0  0  0  0  0  0
   23.2231   25.2452   36.0470 C   0  0  0  0  0  0  0  0  0  0  0  0
   22.2746   25.6070   36.8920 N   0  0  0  0  0  0  0  0  0  0  0  0
   21.2012   24.8137   37.4471 C   0  0  0  0  0  0  0  0  0  0  0  0
   20.8286   23.7223   36.7993 C   0  0  0  0  0  0  0  0  0  0  0  0
   21.0659   23.6728   35.4394 O   0  0  0  0  0  0  0  0  0  0  0  0
   22.2319   22.8922   35.2784 C   0  0  0  0  0  0  0  0  0  0  0  0
   22.2642   22.2415   33.8948 C   0  0  0  0  0  0  0  0  0  0  0  0
   22.0805   21.9057   36.4128 C   0  0  0  0  0  0  0  0  0  0  0  0
   22.7940   20.7379   36.6918 C   0  0  0  0  0  0  0  0  0  0  0  0
   22.5592   20.0901   37.9179 C   0  0  0  0  0  0  0  0  0  0  0  0
   21.6597   20.6394   38.8565 C   0  0  0  0  0  0  0  0  0  0  0  0
   20.9828   21.8384   38.5750 C   0  0  0  0  0  0  0  0  0  0  0  0
   21.1860   22.4227   37.3262 C   0  0  0  0  0  0  0  0  0  0  0  0
   23.4055   23.8272   35.5361 C   0  0  0  0  0  0  0  0  0  0  0  0
   24.5740   23.4032   35.3239 O   0  0  0  0  0  0  0  0  0  0  0  0
   24.3303   27.0341   36.3576 H   0  0  0  0  0  0  0  0  0  0  0  0
   30.0500   29.4789   35.4574 H   0  0  0  0  0  0  0  0  0  0  0  0
   31.6575   29.3889   33.5759 H   0  0  0  0  0  0  0  0  0  0  0  0
   31.0739   28.0595   31.5517 H   0  0  0  0  0  0  0  0  0  0  0  0
   28.8953   26.9542   31.3856 H   0  0  0  0  0  0  0  0  0  0  0  0
   26.6269   26.6226   31.2535 H   0  0  0  0  0  0  0  0  0  0  0  0
   26.3224   25.2207   32.3146 H   0  0  0  0  0  0  0  0  0  0  0  0
   21.0349   24.8825   38.5147 H   0  0  0  0  0  0  0  0  0  0  0  0
   23.1662   21.6028   33.7856 H   0  0  0  0  0  0  0  0  0  0  0  0
   22.2833   23.0253   33.1079 H   0  0  0  0  0  0  0  0  0  0  0  0
   21.3604   21.6125   33.7472 H   0  0  0  0  0  0  0  0  0  0  0  0
   23.5228   20.3501   35.9925 H   0  0  0  0  0  0  0  0  0  0  0  0
   23.0937   19.1795   38.1550 H   0  0  0  0  0  0  0  0  0  0  0  0
   21.5110   20.1493   39.8098 H   0  0  0  0  0  0  0  0  0  0  0  0
   20.3333   22.2983   39.3083 H   0  0  0  0  0  0  0  0  0  0  0  0
  1  2  1  0
  2  3  2  0
  2  4  1  0
  4  5  2  0
  5  6  1  0
  6  7  2  0
  7  8  1  0
  8  9  2  0
  9 10  1  0
 10 11  2  0
 11 12  1  0
 12 13  2  0
 13 14  1  0
  1 15  1  0
 15 16  2  0
 16 17  1  0
 17 18  2  0
 18 19  1  0
 19 20  1  0
 20 21  1  0
 20 22  1  0
 22 23  2  0
 23 24  1  0
 24 25  2  0
 25 26  1  0
 26 27  2  0
 20 28  1  0
 28 29  2  0
 13  4  1  0
 28 15  1  0
 12  7  1  0
 27 18  1  0
 27 22  1  0
  1 30  1  0
  8 31  1  0
  9 32  1  0
 10 33  1  0
 11 34  1  0
 14 35  1  0
 14 36  1  0
 17 37  1  0
 21 38  1  0
 21 39  1  0
 21 40  1  0
 23 41  1  0
 24 42  1  0
 25 43  1  0
 26 44  1  0
M  END
$$$$
confid_3
     RDKit          3D

 44 48  0  0  0  0  0  0  0  0999 V2000
   24.2000   26.2400   35.6900 N   0  0  0  0  0  0  0  0  0  0  0  0
   24.8500   26.2800   34.4800 C   0  0  0  0  0  0  0  0  0  0  0  0
   24.3100   25.7400   33.5400 O   0  0  0  0  0  0  0  0  0  0  0  0
   26.1800   26.9700   34.4700 C   0  0  0  0  0  0  0  0  0  0  0  0
   26.6500   27.6000   35.5500 N   0  0  0  0  0  0  0  0  0  0  0  0
   27.7900   28.2700   35.6200 N   0  0  0  0  0  0  0  0  0  0  0  0
   28.5400   28.3000   34.5100 C   0  0  0  0  0  0  0  0  0  0  0  0
   29.7700   28.9400   34.5600 C   0  0  0  0  0  0  0  0  0  0  0  0
   30.7000   28.8900   33.5000 C   0  0  0  0  0  0  0  0  0  0  0  0
   30.3700   28.1400   32.3700 C   0  0  0  0  0  0  0  0  0  0  0  0
   29.1200   27.5200   32.2800 C   0  0  0  0  0  0  0  0  0  0  0  0
   28.2100   27.6100   33.3300 C   0  0  0  0  0  0  0  0  0  0  0  0
   26.9700   26.9700   33.3100 C   0  0  0  0  0  0  0  0  0  0  0  0
   26.5300   26.2400   32.2200 N   0  0  0  0  0  0  0  0  0  0  0  0
   22.7671   26.1849   35.8419 C   0  0  0  0  0  0  0  0  0  0  0  0
   22.0065   26.4575   34.7947 N   0  0  0  0  0  0  0  0  0  0  0  0
   20.5656   26.4594   34.6887 C   0  0  0  0  0  0  0  0  0  0  0  0
   19.8577   26.6050   35.7950 C   0  0  0  0  0  0  0  0  0  0  0  0
   20.4496   27.2736   36.8480 O   0  0  0  0  0  0  0  0  0  0  0  0
   20.8940   26.2752   37.7423 C   0  0  0  0  0  0  0  0  0  0  0  0
   20.9682   26.8215   39.1692 C   0  0  0  0  0  0  0  0  0  0  0  0
   19.8316   25.2180   37.5530 C   0  0  0  0  0  0  0  0  0  0  0  0
   19.5771   24.0559   38.2851 C   0  0  0  0  0  0  0  0  0  0  0  0
   18.6218   23.1509   37.7886 C   0  0  0  0  0  0  0  0  0  0  0  0
   17.9770   23.3952   36.5572 C   0  0  0  0  0  0  0  0  0  0  0  0
   18.2780   24.5494   35.8142 C   0  0  0  0  0  0  0  0  0  0  0  0
   19.1797   25.4598   36.3625 C   0  0  0  0  0  0  0  0  0  0  0  0
   22.2348   25.7918   37.2057 C   0  0  0  0  0  0  0  0  0  0  0  0
   22.9366   25.0368   37.9319 O   0  0  0  0  0  0  0  0  0  0  0  0
   24.7722   26.2558   36.5648 H   0  0  0  0  0  0  0  0  0  0  0  0
   30.0500   29.4789   35.4574 H   0  0  0  0  0  0  0  0  0  0  0  0
   31.6575   29.3888   33.5759 H   0  0  0  0  0  0  0  0  0  0  0  0
   31.0739   28.0595   31.5517 H   0  0  0  0  0  0  0  0  0  0  0  0
   28.8953   26.9543   31.3856 H   0  0  0  0  0  0  0  0  0  0  0  0
   26.3238   25.2204   32.3142 H   0  0  0  0  0  0  0  0  0  0  0  0
   26.6258   26.6233   31.2536 H   0  0  0  0  0  0  0  0  0  0  0  0
   20.1310   25.9416   33.8429 H   0  0  0  0  0  0  0  0  0  0  0  0
   21.2835   26.0247   39.8758 H   0  0  0  0  0  0  0  0  0  0  0  0
   21.7012   27.6545   39.2185 H   0  0  0  0  0  0  0  0  0  0  0  0
   19.9742   27.2053   39.4836 H   0  0  0  0  0  0  0  0  0  0  0  0
   20.1134   23.8460   39.2011 H   0  0  0  0  0  0  0  0  0  0  0  0
   18.4005   22.2472   38.3411 H   0  0  0  0  0  0  0  0  0  0  0  0
   17.2671   22.6764   36.1693 H   0  0  0  0  0  0  0  0  0  0  0  0
   17.8322   24.7200   34.8430 H   0  0  0  0  0  0  0  0  0  0  0  0
  1  2  1  0
  2  3  2  0
  2  4  1  0
  4  5  2  0
  5  6  1  0
  6  7  2  0
  7  8  1  0
  8  9  2  0
  9 10  1  0
 10 11  2  0
 11 12  1  0
 12 13  2  0
 13 14  1  0
  1 15  1  0
 15 16  2  0
 16 17  1  0
 17 18  2  0
 18 19  1  0
 19 20  1  0
 20 21  1  0
 20 22  1  0
 22 23  2  0
 23 24  1  0
 24 25  2  0
 25 26  1  0
 26 27  2  0
 20 28  1  0
 28 29  2  0
 13  4  1  0
 28 15  1  0
 12  7  1  0
 27 18  1  0
 27 22  1  0
  1 30  1  0
  8 31  1  0
  9 32  1  0
 10 33  1  0
 11 34  1  0
 14 35  1  0
 14 36  1  0
 17 37  1  0
 21 38  1  0
 21 39  1  0
 21 40  1  0
 23 41  1  0
 24 42  1  0
 25 43  1  0
 26 44  1  0
M  END
$$$$
confid_4
     RDKit          3D

 44 48  0  0  0  0  0  0  0  0999 V2000
   24.2000   26.2400   35.6900 N   0  0  0  0  0  0  0  0  0  0  0  0
   24.8500   26.2800   34.4800 C   0  0  0  0  0  0  0  0  0  0  0  0
   24.3100   25.7400   33.5400 O   0  0  0  0  0  0  0  0  0  0  0  0
   26.1800   26.9700   34.4700 C   0  0  0  0  0  0  0  0  0  0  0  0
   26.6500   27.6000   35.5500 N   0  0  0  0  0  0  0  0  0  0  0  0
   27.7900   28.2700   35.6200 N   0  0  0  0  0  0  0  0  0  0  0  0
   28.5400   28.3000   34.5100 C   0  0  0  0  0  0  0  0  0  0  0  0
   29.7700   28.9400   34.5600 C   0  0  0  0  0  0  0  0  0  0  0  0
   30.7000   28.8900   33.5000 C   0  0  0  0  0  0  0  0  0  0  0  0
   30.3700   28.1400   32.3700 C   0  0  0  0  0  0  0  0  0  0  0  0
   29.1200   27.5200   32.2800 C   0  0  0  0  0  0  0  0  0  0  0  0
   28.2100   27.6100   33.3300 C   0  0  0  0  0  0  0  0  0  0  0  0
   26.9700   26.9700   33.3100 C   0  0  0  0  0  0  0  0  0  0  0  0
   26.5300   26.2400   32.2200 N   0  0  0  0  0  0  0  0  0  0  0  0
   23.2876   25.1971   36.0894 C   0  0  0  0  0  0  0  0  0  0  0  0
   23.2844   24.0622   35.4098 N   0  0  0  0  0  0  0  0  0  0  0  0
   22.4662   22.8864   35.5984 C   0  0  0  0  0  0  0  0  0  0  0  0
   21.9187   22.6891   36.7848 C   0  0  0  0  0  0  0  0  0  0  0  0
   22.5546   23.2384   37.8806 O   0  0  0  0  0  0  0  0  0  0  0  0
   21.8414   24.4161   38.1948 C   0  0  0  0  0  0  0  0  0  0  0  0
   21.9927   24.7621   39.6779 C   0  0  0  0  0  0  0  0  0  0  0  0
   20.4356   24.0202   37.8075 C   0  0  0  0  0  0  0  0  0  0  0  0
   19.2186   24.6596   38.0551 C   0  0  0  0  0  0  0  0  0  0  0  0
   18.0608   24.1502   37.4399 C   0  0  0  0  0  0  0  0  0  0  0  0
   18.1434   23.0496   36.5598 C   0  0  0  0  0  0  0  0  0  0  0  0
   19.3841   22.4464   36.2902 C   0  0  0  0  0  0  0  0  0  0  0  0
   20.5035   22.9315   36.9645 C   0  0  0  0  0  0  0  0  0  0  0  0
   22.3719   25.4957   37.2608 C   0  0  0  0  0  0  0  0  0  0  0  0
   22.0394   26.6929   37.4758 O   0  0  0  0  0  0  0  0  0  0  0  0
   24.3648   27.0139   36.3733 H   0  0  0  0  0  0  0  0  0  0  0  0
   30.0498   29.4793   35.4574 H   0  0  0  0  0  0  0  0  0  0  0  0
   31.6569   29.3901   33.5754 H   0  0  0  0  0  0  0  0  0  0  0  0
   31.0716   28.0646   31.5493 H   0  0  0  0  0  0  0  0  0  0  0  0
   28.8854   26.9763   31.3747 H   0  0  0  0  0  0  0  0  0  0  0  0
   25.6754   26.5396   31.7000 H   0  0  0  0  0  0  0  0  0  0  0  0
   27.1523   25.5354   31.7659 H   0  0  0  0  0  0  0  0  0  0  0  0
   21.9995   22.4614   34.7186 H   0  0  0  0  0  0  0  0  0  0  0  0
   23.0613   24.9512   39.9169 H   0  0  0  0  0  0  0  0  0  0  0  0
   21.6336   23.9186   40.3057 H   0  0  0  0  0  0  0  0  0  0  0  0
   21.4032   25.6699   39.9285 H   0  0  0  0  0  0  0  0  0  0  0  0
   19.1677   25.5342   38.6897 H   0  0  0  0  0  0  0  0  0  0  0  0
   17.1040   24.6210   37.6241 H   0  0  0  0  0  0  0  0  0  0  0  0
   17.2505   22.6851   36.0687 H   0  0  0  0  0  0  0  0  0  0  0  0
   19.4684   21.6370   35.5764 H   0  0  0  0  0  0  0  0  0  0  0  0
  1  2  1  0
  2  3  2  0
  2  4  1  0
  4  5  2  0
  5  6  1  0
  6  7  2  0
  7  8  1  0
  8  9  2  0
  9 10  1  0
 10 11  2  0
 11 12  1  0
 12 13  2  0
 13 14  1  0
  1 15  1  0
 15 16  2  0
 16 17  1  0
 17 18  2  0
 18 19  1  0
 19 20  1  0
 20 21  1  0
 20 22  1  0
 22 23  2  0
 23 24  1  0
 24 25  2  0
 25 26  1  0
 26 27  2  0
 20 28  1  0
 28 29  2  0
 13  4  1  0
 28 15  1  0
 12  7  1  0
 27 18  1  0
 27 22  1  0
  1 30  1  0
  8 31  1  0
  9 32  1  0
 10 33  1  0
 11 34  1  0
 14 35  1  0
 14 36  1  0
 17 37  1  0
 21 38  1  0
 21 39  1  0
 21 40  1  0
 23 41  1  0
 24 42  1  0
 25 43  1  0
 26 44  1  0
M  END
$$$$
confid_5
     RDKit          3D

 44 48  0  0  0  0  0  0  0  0999 V2000
   24.2000   26.2400   35.6900 N   0  0  0  0  0  0  0  0  0  0  0  0
   24.8500   26.2800   34.4800 C   0  0  0  0  0  0  0  0  0  0  0  0
   24.3100   25.7400   33.5400 O   0  0  0  0  0  0  0  0  0  0  0  0
   26.1800   26.9700   34.4700 C   0  0  0  0  0  0  0  0  0  0  0  0
   26.6500   27.6000   35.5500 N   0  0  0  0  0  0  0  0  0  0  0  0
   27.7900   28.2700   35.6200 N   0  0  0  0  0  0  0  0  0  0  0  0
   28.5400   28.3000   34.5100 C   0  0  0  0  0  0  0  0  0  0  0  0
   29.7700   28.9400   34.5600 C   0  0  0  0  0  0  0  0  0  0  0  0
   30.7000   28.8900   33.5000 C   0  0  0  0  0  0  0  0  0  0  0  0
   30.3700   28.1400   32.3700 C   0  0  0  0  0  0  0  0  0  0  0  0
   29.1200   27.5200   32.2800 C   0  0  0  0  0  0  0  0  0  0  0  0
   28.2100   27.6100   33.3300 C   0  0  0  0  0  0  0  0  0  0  0  0
   26.9700   26.9700   33.3100 C   0  0  0  0  0  0  0  0  0  0  0  0
   26.5300   26.2400   32.2200 N   0  0  0  0  0  0  0  0  0  0  0  0
   22.7700   26.1406   35.8320 C   0  0  0  0  0  0  0  0  0  0  0  0
   22.0061   26.5415   34.8290 N   0  0  0  0  0  0  0  0  0  0  0  0
   20.5654   26.5304   34.7181 C   0  0  0  0  0  0  0  0  0  0  0  0
   19.8535   26.4985   35.8324 C   0  0  0  0  0  0  0  0  0  0  0  0
   20.4280   27.0267   36.9726 O   0  0  0  0  0  0  0  0  0  0  0  0
   20.8958   25.9236   37.7202 C   0  0  0  0  0  0  0  0  0  0  0  0
   20.9570   26.2657   39.2111 C   0  0  0  0  0  0  0  0  0  0  0  0
   19.8595   24.8788   37.3802 C   0  0  0  0  0  0  0  0  0  0  0  0
   19.6177   23.6294   37.9558 C   0  0  0  0  0  0  0  0  0  0  0  0
   18.6765   22.7846   37.3419 C   0  0  0  0  0  0  0  0  0  0  0  0
   18.0357   23.1750   36.1464 C   0  0  0  0  0  0  0  0  0  0  0  0
   18.3187   24.4222   35.5630 C   0  0  0  0  0  0  0  0  0  0  0  0
   19.2051   25.2662   36.2303 C   0  0  0  0  0  0  0  0  0  0  0  0
   22.2470   25.5506   37.1265 C   0  0  0  0  0  0  0  0  0  0  0  0
   22.9644   24.7151   37.7404 O   0  0  0  0  0  0  0  0  0  0  0  0
   24.7697   26.2326   36.5661 H   0  0  0  0  0  0  0  0  0  0  0  0
   30.0502   29.4786   35.4577 H   0  0  0  0  0  0  0  0  0  0  0  0
   31.6573   29.3890   33.5758 H   0  0  0  0  0  0  0  0  0  0  0  0
   31.0738   28.0596   31.5518 H   0  0  0  0  0  0  0  0  0  0  0  0
   28.8948   26.9547   31.3854 H   0  0  0  0  0  0  0  0  0  0  0  0
   26.6227   26.6256   31.2539 H   0  0  0  0  0  0  0  0  0  0  0  0
   26.3248   25.2201   32.3133 H   0  0  0  0  0  0  0  0  0  0  0  0
   20.1430   26.1295   33.8052 H   0  0  0  0  0  0  0  0  0  0  0  0
   21.2860   25.3820   39.7988 H   0  0  0  0  0  0  0  0  0  0  0  0
   19.9556   26.5844   39.5735 H   0  0  0  0  0  0  0  0  0  0  0  0
   21.6753   27.0967   39.3811 H   0  0  0  0  0  0  0  0  0  0  0  0
   20.1489   23.3134   38.8439 H   0  0  0  0  0  0  0  0  0  0  0  0
   18.4615   21.8187   37.7769 H   0  0  0  0  0  0  0  0  0  0  0  0
   17.3379   22.5034   35.6664 H   0  0  0  0  0  0  0  0  0  0  0  0
   17.8699   24.7131   34.6217 H   0  0  0  0  0  0  0  0  0  0  0  0
  1  2  1  0
  2  3  2  0
  2  4  1  0
  4  5  2  0
  5  6  1  0
  6  7  2  0
  7  8  1  0
  8  9  2  0
  9 10  1  0
 10 11  2  0
 11 12  1  0
 12 13  2  0
 13 14  1  0
  1 15  1  0
 15 16  2  0
 16 17  1  0
 17 18  2  0
 18 19  1  0
 19 20  1  0
 20 21  1  0
 20 22  1  0
 22 23  2  0
 23 24  1  0
 24 25  2  0
 25 26  1  0
 26 27  2  0
 20 28  1  0
 28 29  2  0
 13  4  1  0
 28 15  1  0
 12  7  1  0
 27 18  1  0
 27 22  1  0
  1 30  1  0
  8 31  1  0
  9 32  1  0
 10 33  1  0
 11 34  1  0
 14 35  1  0
 14 36  1  0
 17 37  1  0
 21 38  1  0
 21 39  1  0
 21 40  1  0
 23 41  1  0
 24 42  1  0
 25 43  1  0
 26 44  1  0
M  END
$$$$
confid_6
     RDKit          3D

 44 48  0  0  0  0  0  0  0  0999 V2000
   24.2000   26.2400   35.6900 N   0  0  0  0  0  0  0  0  0  0  0  0
   24.8500   26.2800   34.4800 C   0  0  0  0  0  0  0  0  0  0  0  0
   24.3100   25.7400   33.5400 O   0  0  0  0  0  0  0  0  0  0  0  0
   26.1800   26.9700   34.4700 C   0  0  0  0  0  0  0  0  0  0  0  0
   26.6500   27.6000   35.5500 N   0  0  0  0  0  0  0  0  0  0  0  0
   27.7900   28.2700   35.6200 N   0  0  0  0  0  0  0  0  0  0  0  0
   28.5400   28.3000   34.5100 C   0  0  0  0  0  0  0  0  0  0  0  0
   29.7700   28.9400   34.5600 C   0  0  0  0  0  0  0  0  0  0  0  0
   30.7000   28.8900   33.5000 C   0  0  0  0  0  0  0  0  0  0  0  0
   30.3700   28.1400   32.3700 C   0  0  0  0  0  0  0  0  0  0  0  0
   29.1200   27.5200   32.2800 C   0  0  0  0  0  0  0  0  0  0  0  0
   28.2100   27.6100   33.3300 C   0  0  0  0  0  0  0  0  0  0  0  0
   26.9700   26.9700   33.3100 C   0  0  0  0  0  0  0  0  0  0  0  0
   26.5300   26.2400   32.2200 N   0  0  0  0  0  0  0  0  0  0  0  0
   22.7793   26.0618   35.8366 C   0  0  0  0  0  0  0  0  0  0  0  0
   22.3570   25.4606   36.9342 N   0  0  0  0  0  0  0  0  0  0  0  0
   21.0018   25.1870   37.3563 C   0  0  0  0  0  0  0  0  0  0  0  0
   20.0536   25.1498   36.4347 C   0  0  0  0  0  0  0  0  0  0  0  0
   20.4295   24.8409   35.1419 O   0  0  0  0  0  0  0  0  0  0  0  0
   20.4991   26.0728   34.4545 C   0  0  0  0  0  0  0  0  0  0  0  0
   20.2839   25.8713   32.9539 C   0  0  0  0  0  0  0  0  0  0  0  0
   19.3914   26.8463   35.1309 C   0  0  0  0  0  0  0  0  0  0  0  0
   18.8048   28.0662   34.7866 C   0  0  0  0  0  0  0  0  0  0  0  0
   17.9013   28.6505   35.6923 C   0  0  0  0  0  0  0  0  0  0  0  0
   17.6370   28.0370   36.9355 C   0  0  0  0  0  0  0  0  0  0  0  0
   18.2696   26.8309   37.2817 C   0  0  0  0  0  0  0  0  0  0  0  0
   19.1093   26.2422   36.3379 C   0  0  0  0  0  0  0  0  0  0  0  0
   21.8560   26.6721   34.7973 C   0  0  0  0  0  0  0  0  0  0  0  0
   22.2221   27.7205   34.1999 O   0  0  0  0  0  0  0  0  0  0  0  0
   24.7708   26.2264   36.5662 H   0  0  0  0  0  0  0  0  0  0  0  0
   30.0498   29.4792   35.4573 H   0  0  0  0  0  0  0  0  0  0  0  0
   31.6569   29.3901   33.5753 H   0  0  0  0  0  0  0  0  0  0  0  0
   31.0715   28.0646   31.5492 H   0  0  0  0  0  0  0  0  0  0  0  0
   28.8856   26.9764   31.3746 H   0  0  0  0  0  0  0  0  0  0  0  0
   25.6746   26.5389   31.7008 H   0  0  0  0  0  0  0  0  0  0  0  0
   27.1525   25.5361   31.7652 H   0  0  0  0  0  0  0  0  0  0  0  0
   20.7419   25.4316   38.3785 H   0  0  0  0  0  0  0  0  0  0  0  0
   21.0831   25.2197   32.5407 H   0  0  0  0  0  0  0  0  0  0  0  0
   20.3068   26.8463   32.4226 H   0  0  0  0  0  0  0  0  0  0  0  0
   19.3011   25.3868   32.7705 H   0  0  0  0  0  0  0  0  0  0  0  0
   19.0520   28.5601   33.8563 H   0  0  0  0  0  0  0  0  0  0  0  0
   17.4275   29.5919   35.4461 H   0  0  0  0  0  0  0  0  0  0  0  0
   16.9645   28.5121   37.6378 H   0  0  0  0  0  0  0  0  0  0  0  0
   18.1177   26.3797   38.2536 H   0  0  0  0  0  0  0  0  0  0  0  0
  1  2  1  0
  2  3  2  0
  2  4  1  0
  4  5  2  0
  5  6  1  0
  6  7  2  0
  7  8  1  0
  8  9  2  0
  9 10  1  0
 10 11  2  0
 11 12  1  0
 12 13  2  0
 13 14  1  0
  1 15  1  0
 15 16  2  0
 16 17  1  0
 17 18  2  0
 18 19  1  0
 19 20  1  0
 20 21  1  0
 20 22  1  0
 22 23  2  0
 23 24  1  0
 24 25  2  0
 25 26  1  0
 26 27  2  0
 20 28  1  0
 28 29  2  0
 13  4  1  0
 28 15  1  0
 12  7  1  0
 27 18  1  0
 27 22  1  0
  1 30  1  0
  8 31  1  0
  9 32  1  0
 10 33  1  0
 11 34  1  0
 14 35  1  0
 14 36  1  0
 17 37  1  0
 21 38  1  0
 21 39  1  0
 21 40  1  0
 23 41  1  0
 24 42  1  0
 25 43  1  0
 26 44  1  0
M  END
$$$$
