confid_0
     RDKit          3D

 39 42  0  0  0  0  0  0  0  0999 V2000
   24.2000   26.2400   35.6900 N   0  0  0  0  0  0  0  0  0  0  0  0
   24.8500   26.2800   34.4800 C   0  0  0  0  0  0  0  0  0  0  0  0
   24.3100   25.7400   33.5400 O   0  0  0  0  0  0  0  0  0  0  0  0
   26.1800   26.9700   34.4700 C   0  0  0  0  0  0  0  0  0  0  0  0
   26.6500   27.6000   35.5500 N   0  0  0  0  0  0  0  0  0  0  0  0
   27.7900   28.2700   35.6200 N   0  0  0  0  0  0  0  0  0  0  0  0
   28.5400   28.3000   34.5100 C   0  0  0  0  0  0  0  0  0  0  0  0
   29.7700   28.9400   34.5600 C   0  0  0  0  0  0  0  0  0  0  0  0
   30.7000   28.8900   33.5000 C   0  0  0  0  0  0  0  0  0  0  0  0
   30.3700   28.1400   32.3700 C   0  0  0  0  0  0  0  0  0  0  0  0
   29.1200   27.5200   32.2800 C   0  0  0  0  0  0  0  0  0  0  0  0
   28.2100   27.6100   33.3300 C   0  0  0  0  0  0  0  0  0  0  0  0
   26.9700   26.9700   33.3100 C   0  0  0  0  0  0  0  0  0  0  0  0
   26.5300   26.2400   32.2200 N   0  0  0  0  0  0  0  0  0  0  0  0
   23.2510   25.2168   36.0560 C   0  0  0  0  0  0  0  0  0  0  0  0
   23.2235   24.0328   35.3636 N   0  0  0  0  0  0  0  0  0  0  0  0
   22.3686   23.0173   35.6723 C   0  0  0  0  0  0  0  0  0  0  0  0
   21.4908   23.1829   36.7366 C   0  0  0  0  0  0  0  0  0  0  0  0
   20.4678   22.2149   37.2578 C   0  0  0  0  0  0  0  0  0  0  0  0
   19.8609   22.9460   38.3720 N   0  0  0  0  0  0  0  0  0  0  0  0
   20.4825   24.2218   38.4799 C   0  0  0  0  0  0  0  0  0  0  0  0
   20.1793   25.0858   39.3449 O   0  0  0  0  0  0  0  0  0  0  0  0
   21.4958   24.3561   37.4559 C   0  0  0  0  0  0  0  0  0  0  0  0
   22.3672   25.4048   37.1481 C   0  0  0  0  0  0  0  0  0  0  0  0
   22.3299   26.9003   38.0784 Cl  0  0  0  0  0  0  0  0  0  0  0  0
   18.7944   22.4480   39.2304 C   0  0  0  0  0  0  0  0  0  0  0  0
   24.4024   26.9884   36.3891 H   0  0  0  0  0  0  0  0  0  0  0  0
   30.0498   29.4792   35.4573 H   0  0  0  0  0  0  0  0  0  0  0  0
   31.6569   29.3901   33.5753 H   0  0  0  0  0  0  0  0  0  0  0  0
   31.0715   28.0646   31.5492 H   0  0  0  0  0  0  0  0  0  0  0  0
   28.8856   26.9764   31.3746 H   0  0  0  0  0  0  0  0  0  0  0  0
   25.6752   26.5394   31.7002 H   0  0  0  0  0  0  0  0  0  0  0  0
   27.1523   25.5356   31.7657 H   0  0  0  0  0  0  0  0  0  0  0  0
   22.3786   22.1007   35.0980 H   0  0  0  0  0  0  0  0  0  0  0  0
   20.9563   21.2869   37.6237 H   0  0  0  0  0  0  0  0  0  0  0  0
   19.7065   21.9921   36.4802 H   0  0  0  0  0  0  0  0  0  0  0  0
   17.9116   23.1166   39.1542 H   0  0  0  0  0  0  0  0  0  0  0  0
   18.4989   21.4232   38.9211 H   0  0  0  0  0  0  0  0  0  0  0  0
   19.1455   22.4201   40.2831 H   0  0  0  0  0  0  0  0  0  0  0  0
  1  2  1  0
  2  3  2  0
  2  4  1  0
  4  5  2  0
  5  6  1  0
  6  7  2  0
  7  8  1  0
  8  9  2  0
  9 10  1  0
 10 11  2  0
 11 12  1  0
 12 13  2  0
 13 14  1  0
  1 15  1  0
 15 16  2  0
 16 17  1  0
 17 18  2  0
 18 19  1  0
 19 20  1  0
 20 21  1  0
 21 22  2  0
 21 23  1  0
 23 24  2  0
 24 25  1  0
 20 26  1  0
 13  4  1  0
 24 15  1  0
 12  7  1  0
 23 18  1  0
  1 27  1  0
  8 28  1  0
  9 29  1  0
 10 30  1  0
 11 31  1  0
 14 32  1  0
 14 33  1  0
 17 34  1  0
 19 35  1  0
 19 36  1  0
 26 37  1  0
 26 38  1  0
 26 39  1  0
M  END
$$$$
confid_1
     RDKit          3D

 39 42  0  0  0  0  0  0  0  0999 V2000
   24.2000   26.2400   35.6900 N   0  0  0  0  0  0  0  0  0  0  0  0
   24.8500   26.2800   34.4800 C   0  0  0  0  0  0  0  0  0  0  0  0
   24.3100   25.7400   33.5400 O   0  0  0  0  0  0  0  0  0  0  0  0
   26.1800   26.9700   34.4700 C   0  0  0  0  0  0  0  0  0  0  0  0
   26.6500   27.6000   35.5500 N   0  0  0  0  0  0  0  0  0  0  0  0
   27.7900   28.2700   35.6200 N   0  0  0  0  0  0  0  0  0  0  0  0
   28.5400   28.3000   34.5100 C   0  0  0  0  0  0  0  0  0  0  0  0
   29.7700   28.9400   34.5600 C   0  0  0  0  0  0  0  0  0  0  0  0
   30.7000   28.8900   33.5000 C   0  0  0  0  0  0  0  0  0  0  0  0
   30.3700   28.1400   32.3700 C   0  0  0  0  0  0  0  0  0  0  0  0
   29.1200   27.5200   32.2800 C   0  0  0  0  0  0  0  0  0  0  0  0
   28.2100   27.6100   33.3300 C   0  0  0  0  0  0  0  0  0  0  0  0
   26.9700   26.9700   33.3100 C   0  0  0  0  0  0  0  0  0  0  0  0
   26.5300   26.2400   32.2200 N   0  0  0  0  0  0  0  0  0  0  0  0
   22.7689   26.1201   35.8262 C   0  0  0  0  0  0  0  0  0  0  0  0
   21.9564   26.3954   34.7556 N   0  0  0  0  0  0  0  0  0  0  0  0
   20.5971   26.3234   34.8232 C   0  0  0  0  0  0  0  0  0  0  0  0
   20.0061   25.9618   36.0276 C   0  0  0  0  0  0  0  0  0  0  0  0
   18.5444   25.8163   36.3396 C   0  0  0  0  0  0  0  0  0  0  0  0
   18.5471   25.4184   37.7489 N   0  0  0  0  0  0  0  0  0  0  0  0
   19.8932   25.3429   38.2046 C   0  0  0  0  0  0  0  0  0  0  0  0
   20.2267   25.0254   39.3771 O   0  0  0  0  0  0  0  0  0  0  0  0
   20.7916   25.6840   37.1229 C   0  0  0  0  0  0  0  0  0  0  0  0
   22.1865   25.7537   37.0654 C   0  0  0  0  0  0  0  0  0  0  0  0
   23.1597   25.3709   38.4830 Cl  0  0  0  0  0  0  0  0  0  0  0  0
   17.3638   25.1447   38.5535 C   0  0  0  0  0  0  0  0  0  0  0  0
   24.7707   26.3039   36.5621 H   0  0  0  0  0  0  0  0  0  0  0  0
   30.0498   29.4792   35.4573 H   0  0  0  0  0  0  0  0  0  0  0  0
   31.6569   29.3901   33.5753 H   0  0  0  0  0  0  0  0  0  0  0  0
   31.0715   28.0646   31.5492 H   0  0  0  0  0  0  0  0  0  0  0  0
   28.8856   26.9764   31.3746 H   0  0  0  0  0  0  0  0  0  0  0  0
   27.1524   25.5359   31.7654 H   0  0  0  0  0  0  0  0  0  0  0  0
   25.6751   26.5393   31.7004 H   0  0  0  0  0  0  0  0  0  0  0  0
   19.9940   26.5466   33.9534 H   0  0  0  0  0  0  0  0  0  0  0  0
   18.0176   26.7857   36.2118 H   0  0  0  0  0  0  0  0  0  0  0  0
   18.0868   25.0212   35.7135 H   0  0  0  0  0  0  0  0  0  0  0  0
   17.3307   25.8415   39.4168 H   0  0  0  0  0  0  0  0  0  0  0  0
   16.4451   25.2804   37.9445 H   0  0  0  0  0  0  0  0  0  0  0  0
   17.3992   24.0993   38.9250 H   0  0  0  0  0  0  0  0  0  0  0  0
  1  2  1  0
  2  3  2  0
  2  4  1  0
  4  5  2  0
  5  6  1  0
  6  7  2  0
  7  8  1  0
  8  9  2  0
  9 10  1  0
 10 11  2  0
 11 12  1  0
 12 13  2  0
 13 14  1  0
  1 15  1  0
 15 16  2  0
 16 17  1  0
 17 18  2  0
 18 19  1  0
 19 20  1  0
 20 21  1  0
 21 22  2  0
 21 23  1  0
 23 24  2  0
 24 25  1  0
 20 26  1  0
 13  4  1  0
 24 15  1  0
 12  7  1  0
 23 18  1  0
  1 27  1  0
  8 28  1  0
  9 29  1  0
 10 30  1  0
 11 31  1  0
 14 32  1  0
 14 33  1  0
 17 34  1  0
 19 35  1  0
 19 36  1  0
 26 37  1  0
 26 38  1  0
 26 39  1  0
M  END
$$$$
