confid_0
     RDKit          3D

 45 48  0  0  0  0  0  0  0  0999 V2000
   24.5700   26.8800   35.5900 N   0  0  0  0  0  0  0  0  0  0  0  0
   25.5000   26.4000   34.6900 C   0  0  0  0  0  0  0  0  0  0  0  0
   25.1700   25.5200   33.9100 O   0  0  0  0  0  0  0  0  0  0  0  0
   26.8400   27.0200   34.7400 C   0  0  0  0  0  0  0  0  0  0  0  0
   27.3800   27.2800   35.9400 N   0  0  0  0  0  0  0  0  0  0  0  0
   28.6200   27.7400   36.0300 N   0  0  0  0  0  0  0  0  0  0  0  0
   29.3800   28.0000   34.9600 C   0  0  0  0  0  0  0  0  0  0  0  0
   30.6700   28.5000   35.1300 C   0  0  0  0  0  0  0  0  0  0  0  0
   31.5400   28.6100   34.0300 C   0  0  0  0  0  0  0  0  0  0  0  0
   31.0900   28.2200   32.7700 C   0  0  0  0  0  0  0  0  0  0  0  0
   29.8000   27.7000   32.6000 C   0  0  0  0  0  0  0  0  0  0  0  0
   28.9600   27.5500   33.7100 C   0  0  0  0  0  0  0  0  0  0  0  0
   27.6600   27.0300   33.5900 C   0  0  0  0  0  0  0  0  0  0  0  0
   27.1600   26.7400   32.3400 N   0  0  0  0  0  0  0  0  0  0  0  0
   23.1749   26.5162   35.5747 C   0  0  0  0  0  0  0  0  0  0  0  0
   22.5798   26.1771   34.3874 N   0  0  0  0  0  0  0  0  0  0  0  0
   21.2541   25.8861   34.2825 C   0  0  0  0  0  0  0  0  0  0  0  0
   20.4621   25.9573   35.4203 C   0  0  0  0  0  0  0  0  0  0  0  0
   18.9834   25.7258   35.5284 C   0  0  0  0  0  0  0  0  0  0  0  0
   18.7147   25.9605   36.9476 N   0  0  0  0  0  0  0  0  0  0  0  0
   19.9327   26.3238   37.5914 C   0  0  0  0  0  0  0  0  0  0  0  0
   20.0142   26.6615   38.8020 O   0  0  0  0  0  0  0  0  0  0  0  0
   21.0211   26.3001   36.6318 C   0  0  0  0  0  0  0  0  0  0  0  0
   22.3952   26.5618   36.7634 C   0  0  0  0  0  0  0  0  0  0  0  0
   23.0009   26.8971   38.1014 C   0  0  0  0  0  0  0  0  0  0  0  0
   17.3919   25.9346   37.5667 C   0  0  0  0  0  0  0  0  0  0  0  0
   17.2711   24.7469   38.5137 C   0  0  0  0  0  0  0  0  0  0  0  0
   24.8731   27.5900   36.2944 H   0  0  0  0  0  0  0  0  0  0  0  0
   31.0178   28.7888   36.1143 H   0  0  0  0  0  0  0  0  0  0  0  0
   32.5416   28.9991   34.1593 H   0  0  0  0  0  0  0  0  0  0  0  0
   31.7454   28.3188   31.9142 H   0  0  0  0  0  0  0  0  0  0  0  0
   29.5013   27.4243   31.5992 H   0  0  0  0  0  0  0  0  0  0  0  0
   26.1710   26.9652   32.0922 H   0  0  0  0  0  0  0  0  0  0  0  0
   27.7097   26.1833   31.6492 H   0  0  0  0  0  0  0  0  0  0  0  0
   20.8267   25.6245   33.3238 H   0  0  0  0  0  0  0  0  0  0  0  0
   18.7263   24.6808   35.2535 H   0  0  0  0  0  0  0  0  0  0  0  0
   18.4281   26.4568   34.9030 H   0  0  0  0  0  0  0  0  0  0  0  0
   22.4697   26.3753   38.9221 H   0  0  0  0  0  0  0  0  0  0  0  0
   22.9543   27.9933   38.2681 H   0  0  0  0  0  0  0  0  0  0  0  0
   24.0555   26.5574   38.1597 H   0  0  0  0  0  0  0  0  0  0  0  0
   17.2211   26.8812   38.1229 H   0  0  0  0  0  0  0  0  0  0  0  0
   16.6105   25.8485   36.7808 H   0  0  0  0  0  0  0  0  0  0  0  0
   18.0092   24.8328   39.3386 H   0  0  0  0  0  0  0  0  0  0  0  0
   16.2507   24.7205   38.9504 H   0  0  0  0  0  0  0  0  0  0  0  0
   17.4497   23.8002   37.9608 H   0  0  0  0  0  0  0  0  0  0  0  0
  1  2  1  0
  2  3  2  0
  2  4  1  0
  4  5  2  0
  5  6  1  0
  6  7  2  0
  7  8  1  0
  8  9  2  0
  9 10  1  0
 10 11  2  0
 11 12  1  0
 12 13  2  0
 13 14  1  0
  1 15  1  0
 15 16  2  0
 16 17  1  0
 17 18  2  0
 18 19  1  0
 19 20  1  0
 20 21  1  0
 21 22  2  0
 21 23  1  0
 23 24  2  0
 24 25  1  0
 20 26  1  0
 26 27  1  0
 13  4  1  0
 24 15  1  0
 12  7  1  0
 23 18  1  0
  1 28  1  0
  8 29  1  0
  9 30  1  0
 10 31  1  0
 11 32  1  0
 14 33  1  0
 14 34  1  0
 17 35  1  0
 19 36  1  0
 19 37  1  0
 25 38  1  0
 25 39  1  0
 25 40  1  0
 26 41  1  0
 26 42  1  0
 27 43  1  0
 27 44  1  0
 27 45  1  0
M  END
$$$$
confid_1
     RDKit          3D

 45 48  0  0  0  0  0  0  0  0999 V2000
   24.5700   26.8800   35.5900 N   0  0  0  0  0  0  0  0  0  0  0  0
   25.5000   26.4000   34.6900 C   0  0  0  0  0  0  0  0  0  0  0  0
   25.1700   25.5200   33.9100 O   0  0  0  0  0  0  0  0  0  0  0  0
   26.8400   27.0200   34.7400 C   0  0  0  0  0  0  0  0  0  0  0  0
   27.3800   27.2800   35.9400 N   0  0  0  0  0  0  0  0  0  0  0  0
   28.6200   27.7400   36.0300 N   0  0  0  0  0  0  0  0  0  0  0  0
   29.3800   28.0000   34.9600 C   0  0  0  0  0  0  0  0  0  0  0  0
   30.6700   28.5000   35.1300 C   0  0  0  0  0  0  0  0  0  0  0  0
   31.5400   28.6100   34.0300 C   0  0  0  0  0  0  0  0  0  0  0  0
   31.0900   28.2200   32.7700 C   0  0  0  0  0  0  0  0  0  0  0  0
   29.8000   27.7000   32.6000 C   0  0  0  0  0  0  0  0  0  0  0  0
   28.9600   27.5500   33.7100 C   0  0  0  0  0  0  0  0  0  0  0  0
   27.6600   27.0300   33.5900 C   0  0  0  0  0  0  0  0  0  0  0  0
   27.1600   26.7400   32.3400 N   0  0  0  0  0  0  0  0  0  0  0  0
   23.1761   26.5118   35.5783 C   0  0  0  0  0  0  0  0  0  0  0  0
   22.5787   26.1733   34.3921 N   0  0  0  0  0  0  0  0  0  0  0  0
   21.2534   25.8793   34.2902 C   0  0  0  0  0  0  0  0  0  0  0  0
   20.4641   25.9481   35.4299 C   0  0  0  0  0  0  0  0  0  0  0  0
   18.9877   25.7043   35.5428 C   0  0  0  0  0  0  0  0  0  0  0  0
   18.7164   25.9673   36.9565 N   0  0  0  0  0  0  0  0  0  0  0  0
   19.9396   26.3060   37.6038 C   0  0  0  0  0  0  0  0  0  0  0  0
   20.0321   26.5909   38.8270 O   0  0  0  0  0  0  0  0  0  0  0  0
   21.0256   26.2887   36.6410 C   0  0  0  0  0  0  0  0  0  0  0  0
   22.3999   26.5523   36.7696 C   0  0  0  0  0  0  0  0  0  0  0  0
   23.0086   26.8871   38.1063 C   0  0  0  0  0  0  0  0  0  0  0  0
   17.4141   25.8232   37.6024 C   0  0  0  0  0  0  0  0  0  0  0  0
   16.8549   27.1886   37.9836 C   0  0  0  0  0  0  0  0  0  0  0  0
   24.8721   27.5930   36.2919 H   0  0  0  0  0  0  0  0  0  0  0  0
   31.0179   28.7883   36.1144 H   0  0  0  0  0  0  0  0  0  0  0  0
   32.5424   28.9969   34.1597 H   0  0  0  0  0  0  0  0  0  0  0  0
   31.7487   28.3095   31.9157 H   0  0  0  0  0  0  0  0  0  0  0  0
   29.5077   27.3813   31.6086 H   0  0  0  0  0  0  0  0  0  0  0  0
   27.2454   27.4248   31.5561 H   0  0  0  0  0  0  0  0  0  0  0  0
   26.7446   25.8077   32.1268 H   0  0  0  0  0  0  0  0  0  0  0  0
   20.8244   25.6167   33.3326 H   0  0  0  0  0  0  0  0  0  0  0  0
   18.7461   24.6497   35.2913 H   0  0  0  0  0  0  0  0  0  0  0  0
   18.4210   26.4129   34.9023 H   0  0  0  0  0  0  0  0  0  0  0  0
   22.9502   27.9817   38.2795 H   0  0  0  0  0  0  0  0  0  0  0  0
   24.0672   26.5592   38.1582 H   0  0  0  0  0  0  0  0  0  0  0  0
   22.4878   26.3545   38.9266 H   0  0  0  0  0  0  0  0  0  0  0  0
   17.5148   25.1884   38.5087 H   0  0  0  0  0  0  0  0  0  0  0  0
   16.7035   25.3253   36.9077 H   0  0  0  0  0  0  0  0  0  0  0  0
   17.5201   27.6885   38.7184 H   0  0  0  0  0  0  0  0  0  0  0  0
   16.7632   27.8277   37.0797 H   0  0  0  0  0  0  0  0  0  0  0  0
   15.8500   27.0657   38.4395 H   0  0  0  0  0  0  0  0  0  0  0  0
  1  2  1  0
  2  3  2  0
  2  4  1  0
  4  5  2  0
  5  6  1  0
  6  7  2  0
  7  8  1  0
  8  9  2  0
  9 10  1  0
 10 11  2  0
 11 12  1  0
 12 13  2  0
 13 14  1  0
  1 15  1  0
 15 16  2  0
 16 17  1  0
 17 18  2  0
 18 19  1  0
 19 20  1  0
 20 21  1  0
 21 22  2  0
 21 23  1  0
 23 24  2  0
 24 25  1  0
 20 26  1  0
 26 27  1  0
 13  4  1  0
 24 15  1  0
 12  7  1  0
 23 18  1  0
  1 28  1  0
  8 29  1  0
  9 30  1  0
 10 31  1  0
 11 32  1  0
 14 33  1  0
 14 34  1  0
 17 35  1  0
 19 36  1  0
 19 37  1  0
 25 38  1  0
 25 39  1  0
 25 40  1  0
 26 41  1  0
 26 42  1  0
 27 43  1  0
 27 44  1  0
 27 45  1  0
M  END
$$$$
confid_2
     RDKit          3D

 45 48  0  0  0  0  0  0  0  0999 V2000
   24.5700   26.8800   35.5900 N   0  0  0  0  0  0  0  0  0  0  0  0
   25.5000   26.4000   34.6900 C   0  0  0  0  0  0  0  0  0  0  0  0
   25.1700   25.5200   33.9100 O   0  0  0  0  0  0  0  0  0  0  0  0
   26.8400   27.0200   34.7400 C   0  0  0  0  0  0  0  0  0  0  0  0
   27.3800   27.2800   35.9400 N   0  0  0  0  0  0  0  0  0  0  0  0
   28.6200   27.7400   36.0300 N   0  0  0  0  0  0  0  0  0  0  0  0
   29.3800   28.0000   34.9600 C   0  0  0  0  0  0  0  0  0  0  0  0
   30.6700   28.5000   35.1300 C   0  0  0  0  0  0  0  0  0  0  0  0
   31.5400   28.6100   34.0300 C   0  0  0  0  0  0  0  0  0  0  0  0
   31.0900   28.2200   32.7700 C   0  0  0  0  0  0  0  0  0  0  0  0
   29.8000   27.7000   32.6000 C   0  0  0  0  0  0  0  0  0  0  0  0
   28.9600   27.5500   33.7100 C   0  0  0  0  0  0  0  0  0  0  0  0
   27.6600   27.0300   33.5900 C   0  0  0  0  0  0  0  0  0  0  0  0
   27.1600   26.7400   32.3400 N   0  0  0  0  0  0  0  0  0  0  0  0
   23.3351   26.2037   35.8984 C   0  0  0  0  0  0  0  0  0  0  0  0
   23.2654   24.8408   35.7697 N   0  0  0  0  0  0  0  0  0  0  0  0
   22.1572   24.1235   36.1021 C   0  0  0  0  0  0  0  0  0  0  0  0
   21.0563   24.7944   36.6167 C   0  0  0  0  0  0  0  0  0  0  0  0
   19.7579   24.2068   37.0867 C   0  0  0  0  0  0  0  0  0  0  0  0
   19.0055   25.3806   37.5309 N   0  0  0  0  0  0  0  0  0  0  0  0
   19.8163   26.5390   37.3558 C   0  0  0  0  0  0  0  0  0  0  0  0
   19.4754   27.6964   37.7170 O   0  0  0  0  0  0  0  0  0  0  0  0
   21.0881   26.1636   36.7661 C   0  0  0  0  0  0  0  0  0  0  0  0
   22.2083   26.9221   36.3861 C   0  0  0  0  0  0  0  0  0  0  0  0
   22.2140   28.4231   36.5134 C   0  0  0  0  0  0  0  0  0  0  0  0
   17.6842   25.3445   38.1526 C   0  0  0  0  0  0  0  0  0  0  0  0
   16.6433   25.9593   37.2252 C   0  0  0  0  0  0  0  0  0  0  0  0
   24.7859   27.7666   36.0998 H   0  0  0  0  0  0  0  0  0  0  0  0
   31.0178   28.7889   36.1143 H   0  0  0  0  0  0  0  0  0  0  0  0
   32.5416   28.9991   34.1593 H   0  0  0  0  0  0  0  0  0  0  0  0
   31.7454   28.3188   31.9142 H   0  0  0  0  0  0  0  0  0  0  0  0
   29.5013   27.4243   31.5992 H   0  0  0  0  0  0  0  0  0  0  0  0
   27.7097   26.1833   31.6493 H   0  0  0  0  0  0  0  0  0  0  0  0
   26.1711   26.9654   32.0920 H   0  0  0  0  0  0  0  0  0  0  0  0
   22.1471   23.0481   35.9842 H   0  0  0  0  0  0  0  0  0  0  0  0
   19.2282   23.7012   36.2515 H   0  0  0  0  0  0  0  0  0  0  0  0
   19.9296   23.5123   37.9364 H   0  0  0  0  0  0  0  0  0  0  0  0
   21.1981   28.8408   36.3679 H   0  0  0  0  0  0  0  0  0  0  0  0
   22.8457   28.8880   35.7289 H   0  0  0  0  0  0  0  0  0  0  0  0
   22.5933   28.7117   37.5155 H   0  0  0  0  0  0  0  0  0  0  0  0
   17.7087   25.8991   39.1150 H   0  0  0  0  0  0  0  0  0  0  0  0
   17.3981   24.2919   38.3666 H   0  0  0  0  0  0  0  0  0  0  0  0
   15.6393   25.8909   37.6944 H   0  0  0  0  0  0  0  0  0  0  0  0
   16.8762   27.0284   37.0366 H   0  0  0  0  0  0  0  0  0  0  0  0
   16.6255   25.4130   36.2582 H   0  0  0  0  0  0  0  0  0  0  0  0
  1  2  1  0
  2  3  2  0
  2  4  1  0
  4  5  2  0
  5  6  1  0
  6  7  2  0
  7  8  1  0
  8  9  2  0
  9 10  1  0
 10 11  2  0
 11 12  1  0
 12 13  2  0
 13 14  1  0
  1 15  1  0
 15 16  2  0
 16 17  1  0
 17 18  2  0
 18 19  1  0
 19 20  1  0
 20 21  1  0
 21 22  2  0
 21 23  1  0
 23 24  2  0
 24 25  1  0
 20 26  1  0
 26 27  1  0
 13  4  1  0
 24 15  1  0
 12  7  1  0
 23 18  1  0
  1 28  1  0
  8 29  1  0
  9 30  1  0
 10 31  1  0
 11 32  1  0
 14 33  1  0
 14 34  1  0
 17 35  1  0
 19 36  1  0
 19 37  1  0
 25 38  1  0
 25 39  1  0
 25 40  1  0
 26 41  1  0
 26 42  1  0
 27 43  1  0
 27 44  1  0
 27 45  1  0
M  END
$$$$
confid_3
     RDKit          3D

 45 48  0  0  0  0  0  0  0  0999 V2000
   24.5700   26.8800   35.5900 N   0  0  0  0  0  0  0  0  0  0  0  0
   25.5000   26.4000   34.6900 C   0  0  0  0  0  0  0  0  0  0  0  0
   25.1700   25.5200   33.9100 O   0  0  0  0  0  0  0  0  0  0  0  0
   26.8400   27.0200   34.7400 C   0  0  0  0  0  0  0  0  0  0  0  0
   27.3800   27.2800   35.9400 N   0  0  0  0  0  0  0  0  0  0  0  0
   28.6200   27.7400   36.0300 N   0  0  0  0  0  0  0  0  0  0  0  0
   29.3800   28.0000   34.9600 C   0  0  0  0  0  0  0  0  0  0  0  0
   30.6700   28.5000   35.1300 C   0  0  0  0  0  0  0  0  0  0  0  0
   31.5400   28.6100   34.0300 C   0  0  0  0  0  0  0  0  0  0  0  0
   31.0900   28.2200   32.7700 C   0  0  0  0  0  0  0  0  0  0  0  0
   29.8000   27.7000   32.6000 C   0  0  0  0  0  0  0  0  0  0  0  0
   28.9600   27.5500   33.7100 C   0  0  0  0  0  0  0  0  0  0  0  0
   27.6600   27.0300   33.5900 C   0  0  0  0  0  0  0  0  0  0  0  0
   27.1600   26.7400   32.3400 N   0  0  0  0  0  0  0  0  0  0  0  0
   23.3394   26.1986   35.9049 C   0  0  0  0  0  0  0  0  0  0  0  0
   23.2759   24.8352   35.7787 N   0  0  0  0  0  0  0  0  0  0  0  0
   22.1734   24.1128   36.1187 C   0  0  0  0  0  0  0  0  0  0  0  0
   21.0725   24.7787   36.6395 C   0  0  0  0  0  0  0  0  0  0  0  0
   19.7774   24.1853   37.1109 C   0  0  0  0  0  0  0  0  0  0  0  0
   19.0349   25.3514   37.5906 N   0  0  0  0  0  0  0  0  0  0  0  0
   19.8270   26.5174   37.3834 C   0  0  0  0  0  0  0  0  0  0  0  0
   19.4613   27.6803   37.6998 O   0  0  0  0  0  0  0  0  0  0  0  0
   21.0974   26.1485   36.7857 C   0  0  0  0  0  0  0  0  0  0  0  0
   22.2117   26.9122   36.3978 C   0  0  0  0  0  0  0  0  0  0  0  0
   22.2131   28.4133   36.5261 C   0  0  0  0  0  0  0  0  0  0  0  0
   17.6721   25.3211   38.1153 C   0  0  0  0  0  0  0  0  0  0  0  0
   17.6718   25.6038   39.6128 C   0  0  0  0  0  0  0  0  0  0  0  0
   24.7849   27.7681   36.0978 H   0  0  0  0  0  0  0  0  0  0  0  0
   31.0180   28.7883   36.1144 H   0  0  0  0  0  0  0  0  0  0  0  0
   32.5424   28.9969   34.1597 H   0  0  0  0  0  0  0  0  0  0  0  0
   31.7486   28.3095   31.9157 H   0  0  0  0  0  0  0  0  0  0  0  0
   29.5077   27.3813   31.6086 H   0  0  0  0  0  0  0  0  0  0  0  0
   26.7456   25.8072   32.1267 H   0  0  0  0  0  0  0  0  0  0  0  0
   27.2455   27.4247   31.5561 H   0  0  0  0  0  0  0  0  0  0  0  0
   22.1678   23.0375   36.0017 H   0  0  0  0  0  0  0  0  0  0  0  0
   19.2392   23.7035   36.2671 H   0  0  0  0  0  0  0  0  0  0  0  0
   19.9509   23.4689   37.9418 H   0  0  0  0  0  0  0  0  0  0  0  0
   21.1957   28.8284   36.3857 H   0  0  0  0  0  0  0  0  0  0  0  0
   22.5965   28.7023   37.5267 H   0  0  0  0  0  0  0  0  0  0  0  0
   22.8392   28.8811   35.7388 H   0  0  0  0  0  0  0  0  0  0  0  0
   17.2241   24.3191   37.9392 H   0  0  0  0  0  0  0  0  0  0  0  0
   17.0513   26.0758   37.5867 H   0  0  0  0  0  0  0  0  0  0  0  0
   18.0694   26.6203   39.8157 H   0  0  0  0  0  0  0  0  0  0  0  0
   16.6344   25.5427   40.0037 H   0  0  0  0  0  0  0  0  0  0  0  0
   18.2988   24.8543   40.1409 H   0  0  0  0  0  0  0  0  0  0  0  0
  1  2  1  0
  2  3  2  0
  2  4  1  0
  4  5  2  0
  5  6  1  0
  6  7  2  0
  7  8  1  0
  8  9  2  0
  9 10  1  0
 10 11  2  0
 11 12  1  0
 12 13  2  0
 13 14  1  0
  1 15  1  0
 15 16  2  0
 16 17  1  0
 17 18  2  0
 18 19  1  0
 19 20  1  0
 20 21  1  0
 21 22  2  0
 21 23  1  0
 23 24  2  0
 24 25  1  0
 20 26  1  0
 26 27  1  0
 13  4  1  0
 24 15  1  0
 12  7  1  0
 23 18  1  0
  1 28  1  0
  8 29  1  0
  9 30  1  0
 10 31  1  0
 11 32  1  0
 14 33  1  0
 14 34  1  0
 17 35  1  0
 19 36  1  0
 19 37  1  0
 25 38  1  0
 25 39  1  0
 25 40  1  0
 26 41  1  0
 26 42  1  0
 27 43  1  0
 27 44  1  0
 27 45  1  0
M  END
$$$$
