confid_0
     RDKit          3D

 43 47  0  0  0  0  0  0  0  0999 V2000
   24.6900   26.1200   35.5300 N   0  0  0  0  0  0  0  0  0  0  0  0
   25.6600   25.6700   34.6600 C   0  0  0  0  0  0  0  0  0  0  0  0
   25.2400   25.0100   33.7200 O   0  0  0  0  0  0  0  0  0  0  0  0
   27.0300   26.2200   34.8800 C   0  0  0  0  0  0  0  0  0  0  0  0
   27.3500   26.7300   36.0700 N   0  0  0  0  0  0  0  0  0  0  0  0
   28.5700   27.1800   36.3300 N   0  0  0  0  0  0  0  0  0  0  0  0
   29.5300   27.1100   35.3900 C   0  0  0  0  0  0  0  0  0  0  0  0
   30.8300   27.5700   35.6500 C   0  0  0  0  0  0  0  0  0  0  0  0
   31.8500   27.5400   34.6900 C   0  0  0  0  0  0  0  0  0  0  0  0
   31.5100   27.1200   33.4000 C   0  0  0  0  0  0  0  0  0  0  0  0
   30.2200   26.6300   33.1100 C   0  0  0  0  0  0  0  0  0  0  0  0
   29.2400   26.6600   34.1000 C   0  0  0  0  0  0  0  0  0  0  0  0
   27.9300   26.2600   33.8100 C   0  0  0  0  0  0  0  0  0  0  0  0
   27.5200   25.7100   32.6100 N   0  0  0  0  0  0  0  0  0  0  0  0
   23.3284   26.4157   35.1637 C   0  0  0  0  0  0  0  0  0  0  0  0
   22.9795   26.4544   33.9055 N   0  0  0  0  0  0  0  0  0  0  0  0
   21.7089   26.6955   33.2598 C   0  0  0  0  0  0  0  0  0  0  0  0
   20.7320   27.5165   33.6768 C   0  0  0  0  0  0  0  0  0  0  0  0
   19.4479   28.0067   33.0657 C   0  0  0  0  0  0  0  0  0  0  0  0
   19.1134   28.8647   34.1074 O   0  0  0  0  0  0  0  0  0  0  0  0
   20.2684   28.4642   34.7677 C   0  0  0  0  0  0  0  0  0  0  0  0
   19.9143   27.7707   36.0892 C   0  0  0  0  0  0  0  0  0  0  0  0
   21.1491   27.1462   36.5871 C   0  0  0  0  0  0  0  0  0  0  0  0
   22.3718   26.6590   36.2329 C   0  0  0  0  0  0  0  0  0  0  0  0
   21.9840   26.6181   37.5761 N   0  0  0  0  0  0  0  0  0  0  0  0
   22.2311   26.2231   38.9500 C   0  0  0  0  0  0  0  0  0  0  0  0
   21.6443   27.2101   39.8598 C   0  0  0  0  0  0  0  0  0  0  0  0
   21.1804   27.9904   40.5785 N   0  0  0  0  0  0  0  0  0  0  0  0
   24.9470   26.2641   36.5333 H   0  0  0  0  0  0  0  0  0  0  0  0
   31.0672   27.9417   36.6392 H   0  0  0  0  0  0  0  0  0  0  0  0
   32.8483   27.8885   34.9210 H   0  0  0  0  0  0  0  0  0  0  0  0
   32.2640   27.1262   32.6235 H   0  0  0  0  0  0  0  0  0  0  0  0
   30.0100   26.3033   32.1004 H   0  0  0  0  0  0  0  0  0  0  0  0
   26.6938   26.1026   32.1056 H   0  0  0  0  0  0  0  0  0  0  0  0
   28.1310   25.0424   32.0899 H   0  0  0  0  0  0  0  0  0  0  0  0
   21.5852   26.2749   32.2708 H   0  0  0  0  0  0  0  0  0  0  0  0
   19.6226   28.5675   32.1209 H   0  0  0  0  0  0  0  0  0  0  0  0
   18.6998   27.1904   32.9558 H   0  0  0  0  0  0  0  0  0  0  0  0
   20.9699   29.3187   34.9044 H   0  0  0  0  0  0  0  0  0  0  0  0
   19.1415   26.9873   35.9339 H   0  0  0  0  0  0  0  0  0  0  0  0
   19.5485   28.5159   36.8263 H   0  0  0  0  0  0  0  0  0  0  0  0
   21.7734   25.2291   39.1365 H   0  0  0  0  0  0  0  0  0  0  0  0
   23.3257   26.1636   39.1258 H   0  0  0  0  0  0  0  0  0  0  0  0
  1  2  1  0
  2  3  2  0
  2  4  1  0
  4  5  2  0
  5  6  1  0
  6  7  2  0
  7  8  1  0
  8  9  2  0
  9 10  1  0
 10 11  2  0
 11 12  1  0
 12 13  2  0
 13 14  1  0
  1 15  1  0
 15 16  2  0
 16 17  1  0
 17 18  2  0
 18 19  1  0
 19 20  1  0
 20 21  1  0
 21 22  1  0
 22 23  1  0
 23 24  2  0
 24 25  1  0
 25 26  1  0
 26 27  1  0
 27 28  3  0
 13  4  1  0
 24 15  1  0
 12  7  1  0
 21 18  1  0
 25 23  1  0
  1 29  1  0
  8 30  1  0
  9 31  1  0
 10 32  1  0
 11 33  1  0
 14 34  1  0
 14 35  1  0
 17 36  1  0
 19 37  1  0
 19 38  1  0
 21 39  1  0
 22 40  1  0
 22 41  1  0
 26 42  1  0
 26 43  1  0
M  END
$$$$
confid_1
     RDKit          3D

 43 47  0  0  0  0  0  0  0  0999 V2000
   24.6900   26.1200   35.5300 N   0  0  0  0  0  0  0  0  0  0  0  0
   25.6600   25.6700   34.6600 C   0  0  0  0  0  0  0  0  0  0  0  0
   25.2400   25.0100   33.7200 O   0  0  0  0  0  0  0  0  0  0  0  0
   27.0300   26.2200   34.8800 C   0  0  0  0  0  0  0  0  0  0  0  0
   27.3500   26.7300   36.0700 N   0  0  0  0  0  0  0  0  0  0  0  0
   28.5700   27.1800   36.3300 N   0  0  0  0  0  0  0  0  0  0  0  0
   29.5300   27.1100   35.3900 C   0  0  0  0  0  0  0  0  0  0  0  0
   30.8300   27.5700   35.6500 C   0  0  0  0  0  0  0  0  0  0  0  0
   31.8500   27.5400   34.6900 C   0  0  0  0  0  0  0  0  0  0  0  0
   31.5100   27.1200   33.4000 C   0  0  0  0  0  0  0  0  0  0  0  0
   30.2200   26.6300   33.1100 C   0  0  0  0  0  0  0  0  0  0  0  0
   29.2400   26.6600   34.1000 C   0  0  0  0  0  0  0  0  0  0  0  0
   27.9300   26.2600   33.8100 C   0  0  0  0  0  0  0  0  0  0  0  0
   27.5200   25.7100   32.6100 N   0  0  0  0  0  0  0  0  0  0  0  0
   23.3280   26.4143   35.1645 C   0  0  0  0  0  0  0  0  0  0  0  0
   22.9780   26.4520   33.9065 N   0  0  0  0  0  0  0  0  0  0  0  0
   21.7067   26.6908   33.2614 C   0  0  0  0  0  0  0  0  0  0  0  0
   20.7275   27.5082   33.6798 C   0  0  0  0  0  0  0  0  0  0  0  0
   19.4416   27.9949   33.0695 C   0  0  0  0  0  0  0  0  0  0  0  0
   19.1045   28.8504   34.1121 O   0  0  0  0  0  0  0  0  0  0  0  0
   20.2616   28.4539   34.7714 C   0  0  0  0  0  0  0  0  0  0  0  0
   19.9110   27.7591   36.0934 C   0  0  0  0  0  0  0  0  0  0  0  0
   21.1482   27.1387   36.5904 C   0  0  0  0  0  0  0  0  0  0  0  0
   22.3718   26.6552   36.2345 C   0  0  0  0  0  0  0  0  0  0  0  0
   21.9852   26.6120   37.5780 N   0  0  0  0  0  0  0  0  0  0  0  0
   22.2321   26.2193   38.9522 C   0  0  0  0  0  0  0  0  0  0  0  0
   21.7992   24.8353   39.1520 C   0  0  0  0  0  0  0  0  0  0  0  0
   21.4569   23.7411   39.3096 N   0  0  0  0  0  0  0  0  0  0  0  0
   24.9473   26.2643   36.5332 H   0  0  0  0  0  0  0  0  0  0  0  0
   31.0672   27.9417   36.6393 H   0  0  0  0  0  0  0  0  0  0  0  0
   32.8482   27.8886   34.9211 H   0  0  0  0  0  0  0  0  0  0  0  0
   32.2640   27.1263   32.6235 H   0  0  0  0  0  0  0  0  0  0  0  0
   30.0101   26.3034   32.1004 H   0  0  0  0  0  0  0  0  0  0  0  0
   28.1317   25.0439   32.0889 H   0  0  0  0  0  0  0  0  0  0  0  0
   26.6933   26.1020   32.1061 H   0  0  0  0  0  0  0  0  0  0  0  0
   21.5840   26.2713   32.2719 H   0  0  0  0  0  0  0  0  0  0  0  0
   18.6961   27.1765   32.9585 H   0  0  0  0  0  0  0  0  0  0  0  0
   19.6146   28.5574   32.1256 H   0  0  0  0  0  0  0  0  0  0  0  0
   20.9602   29.3110   34.9075 H   0  0  0  0  0  0  0  0  0  0  0  0
   19.5435   28.5031   36.8307 H   0  0  0  0  0  0  0  0  0  0  0  0
   19.1406   26.9734   35.9388 H   0  0  0  0  0  0  0  0  0  0  0  0
   21.6664   26.8861   39.6350 H   0  0  0  0  0  0  0  0  0  0  0  0
   23.3168   26.3020   39.1707 H   0  0  0  0  0  0  0  0  0  0  0  0
  1  2  1  0
  2  3  2  0
  2  4  1  0
  4  5  2  0
  5  6  1  0
  6  7  2  0
  7  8  1  0
  8  9  2  0
  9 10  1  0
 10 11  2  0
 11 12  1  0
 12 13  2  0
 13 14  1  0
  1 15  1  0
 15 16  2  0
 16 17  1  0
 17 18  2  0
 18 19  1  0
 19 20  1  0
 20 21  1  0
 21 22  1  0
 22 23  1  0
 23 24  2  0
 24 25  1  0
 25 26  1  0
 26 27  1  0
 27 28  3  0
 13  4  1  0
 24 15  1  0
 12  7  1  0
 21 18  1  0
 25 23  1  0
  1 29  1  0
  8 30  1  0
  9 31  1  0
 10 32  1  0
 11 33  1  0
 14 34  1  0
 14 35  1  0
 17 36  1  0
 19 37  1  0
 19 38  1  0
 21 39  1  0
 22 40  1  0
 22 41  1  0
 26 42  1  0
 26 43  1  0
M  END
$$$$
confid_2
     RDKit          3D

 43 47  0  0  0  0  0  0  0  0999 V2000
   24.6900   26.1200   35.5300 N   0  0  0  0  0  0  0  0  0  0  0  0
   25.6600   25.6700   34.6600 C   0  0  0  0  0  0  0  0  0  0  0  0
   25.2400   25.0100   33.7200 O   0  0  0  0  0  0  0  0  0  0  0  0
   27.0300   26.2200   34.8800 C   0  0  0  0  0  0  0  0  0  0  0  0
   27.3500   26.7300   36.0700 N   0  0  0  0  0  0  0  0  0  0  0  0
   28.5700   27.1800   36.3300 N   0  0  0  0  0  0  0  0  0  0  0  0
   29.5300   27.1100   35.3900 C   0  0  0  0  0  0  0  0  0  0  0  0
   30.8300   27.5700   35.6500 C   0  0  0  0  0  0  0  0  0  0  0  0
   31.8500   27.5400   34.6900 C   0  0  0  0  0  0  0  0  0  0  0  0
   31.5100   27.1200   33.4000 C   0  0  0  0  0  0  0  0  0  0  0  0
   30.2200   26.6300   33.1100 C   0  0  0  0  0  0  0  0  0  0  0  0
   29.2400   26.6600   34.1000 C   0  0  0  0  0  0  0  0  0  0  0  0
   27.9300   26.2600   33.8100 C   0  0  0  0  0  0  0  0  0  0  0  0
   27.5200   25.7100   32.6100 N   0  0  0  0  0  0  0  0  0  0  0  0
   23.3234   26.3970   35.1686 C   0  0  0  0  0  0  0  0  0  0  0  0
   22.9756   26.4555   33.9108 N   0  0  0  0  0  0  0  0  0  0  0  0
   21.7182   26.7627   33.2673 C   0  0  0  0  0  0  0  0  0  0  0  0
   20.4864   26.4932   33.7283 C   0  0  0  0  0  0  0  0  0  0  0  0
   19.1065   26.5836   33.1364 C   0  0  0  0  0  0  0  0  0  0  0  0
   18.4463   26.0379   34.2313 O   0  0  0  0  0  0  0  0  0  0  0  0
   19.6716   25.9281   34.8774 C   0  0  0  0  0  0  0  0  0  0  0  0
   19.6871   26.7960   36.1426 C   0  0  0  0  0  0  0  0  0  0  0  0
   21.0810   26.8483   36.6085 C   0  0  0  0  0  0  0  0  0  0  0  0
   22.3842   26.7037   36.2368 C   0  0  0  0  0  0  0  0  0  0  0  0
   22.0840   27.0060   37.5693 N   0  0  0  0  0  0  0  0  0  0  0  0
   22.4968   27.2041   38.9461 C   0  0  0  0  0  0  0  0  0  0  0  0
   23.8238   27.8224   38.9787 C   0  0  0  0  0  0  0  0  0  0  0  0
   24.8729   28.3102   39.0030 N   0  0  0  0  0  0  0  0  0  0  0  0
   24.9501   26.2730   36.5310 H   0  0  0  0  0  0  0  0  0  0  0  0
   31.0672   27.9417   36.6393 H   0  0  0  0  0  0  0  0  0  0  0  0
   32.8482   27.8886   34.9211 H   0  0  0  0  0  0  0  0  0  0  0  0
   32.2640   27.1263   32.6235 H   0  0  0  0  0  0  0  0  0  0  0  0
   30.0101   26.3034   32.1004 H   0  0  0  0  0  0  0  0  0  0  0  0
   26.6933   26.1020   32.1061 H   0  0  0  0  0  0  0  0  0  0  0  0
   28.1317   25.0439   32.0889 H   0  0  0  0  0  0  0  0  0  0  0  0
   21.7752   27.1270   32.2504 H   0  0  0  0  0  0  0  0  0  0  0  0
   18.7966   27.6372   32.9589 H   0  0  0  0  0  0  0  0  0  0  0  0
   18.9959   25.9395   32.2363 H   0  0  0  0  0  0  0  0  0  0  0  0
   19.9234   24.8625   35.0831 H   0  0  0  0  0  0  0  0  0  0  0  0
   19.3326   27.8262   35.9237 H   0  0  0  0  0  0  0  0  0  0  0  0
   19.0476   26.3395   36.9268 H   0  0  0  0  0  0  0  0  0  0  0  0
   21.7686   27.8657   39.4588 H   0  0  0  0  0  0  0  0  0  0  0  0
   22.5334   26.2241   39.4648 H   0  0  0  0  0  0  0  0  0  0  0  0
  1  2  1  0
  2  3  2  0
  2  4  1  0
  4  5  2  0
  5  6  1  0
  6  7  2  0
  7  8  1  0
  8  9  2  0
  9 10  1  0
 10 11  2  0
 11 12  1  0
 12 13  2  0
 13 14  1  0
  1 15  1  0
 15 16  2  0
 16 17  1  0
 17 18  2  0
 18 19  1  0
 19 20  1  0
 20 21  1  0
 21 22  1  0
 22 23  1  0
 23 24  2  0
 24 25  1  0
 25 26  1  0
 26 27  1  0
 27 28  3  0
 13  4  1  0
 24 15  1  0
 12  7  1  0
 21 18  1  0
 25 23  1  0
  1 29  1  0
  8 30  1  0
  9 31  1  0
 10 32  1  0
 11 33  1  0
 14 34  1  0
 14 35  1  0
 17 36  1  0
 19 37  1  0
 19 38  1  0
 21 39  1  0
 22 40  1  0
 22 41  1  0
 26 42  1  0
 26 43  1  0
M  END
$$$$
