confid_0
     RDKit          3D

 36 39  0  0  0  0  0  0  0  0999 V2000
   24.2000   26.2400   35.6900 N   0  0  0  0  0  0  0  0  0  0  0  0
   24.8500   26.2800   34.4800 C   0  0  0  0  0  0  0  0  0  0  0  0
   24.3100   25.7400   33.5400 O   0  0  0  0  0  0  0  0  0  0  0  0
   26.1800   26.9700   34.4700 C   0  0  0  0  0  0  0  0  0  0  0  0
   26.6500   27.6000   35.5500 N   0  0  0  0  0  0  0  0  0  0  0  0
   27.7900   28.2700   35.6200 N   0  0  0  0  0  0  0  0  0  0  0  0
   28.5400   28.3000   34.5100 C   0  0  0  0  0  0  0  0  0  0  0  0
   29.7700   28.9400   34.5600 C   0  0  0  0  0  0  0  0  0  0  0  0
   30.7000   28.8900   33.5000 C   0  0  0  0  0  0  0  0  0  0  0  0
   30.3700   28.1400   32.3700 C   0  0  0  0  0  0  0  0  0  0  0  0
   29.1200   27.5200   32.2800 C   0  0  0  0  0  0  0  0  0  0  0  0
   28.2100   27.6100   33.3300 C   0  0  0  0  0  0  0  0  0  0  0  0
   26.9700   26.9700   33.3100 C   0  0  0  0  0  0  0  0  0  0  0  0
   26.5300   26.2400   32.2200 N   0  0  0  0  0  0  0  0  0  0  0  0
   23.2078   25.2637   36.0529 C   0  0  0  0  0  0  0  0  0  0  0  0
   22.5039   25.4236   37.2165 N   0  0  0  0  0  0  0  0  0  0  0  0
   21.5666   24.5163   37.6131 C   0  0  0  0  0  0  0  0  0  0  0  0
   21.3351   23.4052   36.8095 C   0  0  0  0  0  0  0  0  0  0  0  0
   20.3769   22.2748   37.0170 C   0  0  0  0  0  0  0  0  0  0  0  0
   20.6725   21.6050   38.1916 F   0  0  0  0  0  0  0  0  0  0  0  0
   19.0771   22.7487   37.0551 F   0  0  0  0  0  0  0  0  0  0  0  0
   20.5962   21.3550   35.7836 C   0  0  0  0  0  0  0  0  0  0  0  0
   21.6589   22.0497   34.9927 C   0  0  0  0  0  0  0  0  0  0  0  0
   22.1389   21.6358   33.9049 O   0  0  0  0  0  0  0  0  0  0  0  0
   22.0509   23.2608   35.6597 C   0  0  0  0  0  0  0  0  0  0  0  0
   22.9820   24.1651   35.2703 N   0  0  0  0  0  0  0  0  0  0  0  0
   24.4137   26.9669   36.4099 H   0  0  0  0  0  0  0  0  0  0  0  0
   30.0498   29.4792   35.4573 H   0  0  0  0  0  0  0  0  0  0  0  0
   31.6569   29.3901   33.5753 H   0  0  0  0  0  0  0  0  0  0  0  0
   31.0715   28.0646   31.5492 H   0  0  0  0  0  0  0  0  0  0  0  0
   28.8856   26.9764   31.3746 H   0  0  0  0  0  0  0  0  0  0  0  0
   27.1523   25.5356   31.7657 H   0  0  0  0  0  0  0  0  0  0  0  0
   25.6752   26.5393   31.7002 H   0  0  0  0  0  0  0  0  0  0  0  0
   21.0194   24.6610   38.5350 H   0  0  0  0  0  0  0  0  0  0  0  0
   20.9490   20.3469   36.0902 H   0  0  0  0  0  0  0  0  0  0  0  0
   19.6692   21.2655   35.1776 H   0  0  0  0  0  0  0  0  0  0  0  0
  1  2  1  0
  2  3  2  0
  2  4  1  0
  4  5  2  0
  5  6  1  0
  6  7  2  0
  7  8  1  0
  8  9  2  0
  9 10  1  0
 10 11  2  0
 11 12  1  0
 12 13  2  0
 13 14  1  0
  1 15  1  0
 15 16  2  0
 16 17  1  0
 17 18  2  0
 18 19  1  0
 19 20  1  0
 19 21  1  0
 19 22  1  0
 22 23  1  0
 23 24  2  0
 23 25  1  0
 25 26  2  0
 13  4  1  0
 26 15  1  0
 12  7  1  0
 25 18  1  0
  1 27  1  0
  8 28  1  0
  9 29  1  0
 10 30  1  0
 11 31  1  0
 14 32  1  0
 14 33  1  0
 17 34  1  0
 22 35  1  0
 22 36  1  0
M  END
$$$$
confid_1
     RDKit          3D

 36 39  0  0  0  0  0  0  0  0999 V2000
   24.2000   26.2400   35.6900 N   0  0  0  0  0  0  0  0  0  0  0  0
   24.8500   26.2800   34.4800 C   0  0  0  0  0  0  0  0  0  0  0  0
   24.3100   25.7400   33.5400 O   0  0  0  0  0  0  0  0  0  0  0  0
   26.1800   26.9700   34.4700 C   0  0  0  0  0  0  0  0  0  0  0  0
   26.6500   27.6000   35.5500 N   0  0  0  0  0  0  0  0  0  0  0  0
   27.7900   28.2700   35.6200 N   0  0  0  0  0  0  0  0  0  0  0  0
   28.5400   28.3000   34.5100 C   0  0  0  0  0  0  0  0  0  0  0  0
   29.7700   28.9400   34.5600 C   0  0  0  0  0  0  0  0  0  0  0  0
   30.7000   28.8900   33.5000 C   0  0  0  0  0  0  0  0  0  0  0  0
   30.3700   28.1400   32.3700 C   0  0  0  0  0  0  0  0  0  0  0  0
   29.1200   27.5200   32.2800 C   0  0  0  0  0  0  0  0  0  0  0  0
   28.2100   27.6100   33.3300 C   0  0  0  0  0  0  0  0  0  0  0  0
   26.9700   26.9700   33.3100 C   0  0  0  0  0  0  0  0  0  0  0  0
   26.5300   26.2400   32.2200 N   0  0  0  0  0  0  0  0  0  0  0  0
   22.7808   26.0686   35.8484 C   0  0  0  0  0  0  0  0  0  0  0  0
   21.9380   26.1276   34.7685 N   0  0  0  0  0  0  0  0  0  0  0  0
   20.5895   25.9852   34.9086 C   0  0  0  0  0  0  0  0  0  0  0  0
   20.0718   25.7816   36.1830 C   0  0  0  0  0  0  0  0  0  0  0  0
   18.6472   25.6023   36.6039 C   0  0  0  0  0  0  0  0  0  0  0  0
   18.1077   24.4778   36.0040 F   0  0  0  0  0  0  0  0  0  0  0  0
   17.9039   26.7211   36.2702 F   0  0  0  0  0  0  0  0  0  0  0  0
   18.7225   25.4262   38.1463 C   0  0  0  0  0  0  0  0  0  0  0  0
   20.1828   25.5230   38.4553 C   0  0  0  0  0  0  0  0  0  0  0  0
   20.6865   25.4337   39.6057 O   0  0  0  0  0  0  0  0  0  0  0  0
   20.9259   25.7335   37.2432 C   0  0  0  0  0  0  0  0  0  0  0  0
   22.2659   25.8761   37.0988 N   0  0  0  0  0  0  0  0  0  0  0  0
   24.7564   26.3260   36.5708 H   0  0  0  0  0  0  0  0  0  0  0  0
   30.0498   29.4792   35.4573 H   0  0  0  0  0  0  0  0  0  0  0  0
   31.6569   29.3901   33.5753 H   0  0  0  0  0  0  0  0  0  0  0  0
   31.0715   28.0646   31.5492 H   0  0  0  0  0  0  0  0  0  0  0  0
   28.8856   26.9764   31.3746 H   0  0  0  0  0  0  0  0  0  0  0  0
   25.6751   26.5394   31.7003 H   0  0  0  0  0  0  0  0  0  0  0  0
   27.1524   25.5358   31.7654 H   0  0  0  0  0  0  0  0  0  0  0  0
   19.9407   26.0329   34.0443 H   0  0  0  0  0  0  0  0  0  0  0  0
   18.1688   26.2338   38.6716 H   0  0  0  0  0  0  0  0  0  0  0  0
   18.3334   24.4332   38.4580 H   0  0  0  0  0  0  0  0  0  0  0  0
  1  2  1  0
  2  3  2  0
  2  4  1  0
  4  5  2  0
  5  6  1  0
  6  7  2  0
  7  8  1  0
  8  9  2  0
  9 10  1  0
 10 11  2  0
 11 12  1  0
 12 13  2  0
 13 14  1  0
  1 15  1  0
 15 16  2  0
 16 17  1  0
 17 18  2  0
 18 19  1  0
 19 20  1  0
 19 21  1  0
 19 22  1  0
 22 23  1  0
 23 24  2  0
 23 25  1  0
 25 26  2  0
 13  4  1  0
 26 15  1  0
 12  7  1  0
 25 18  1  0
  1 27  1  0
  8 28  1  0
  9 29  1  0
 10 30  1  0
 11 31  1  0
 14 32  1  0
 14 33  1  0
 17 34  1  0
 22 35  1  0
 22 36  1  0
M  END
$$$$
confid_2
     RDKit          3D

 36 39  0  0  0  0  0  0  0  0999 V2000
   24.2000   26.2400   35.6900 N   0  0  0  0  0  0  0  0  0  0  0  0
   24.8500   26.2800   34.4800 C   0  0  0  0  0  0  0  0  0  0  0  0
   24.3100   25.7400   33.5400 O   0  0  0  0  0  0  0  0  0  0  0  0
   26.1800   26.9700   34.4700 C   0  0  0  0  0  0  0  0  0  0  0  0
   26.6500   27.6000   35.5500 N   0  0  0  0  0  0  0  0  0  0  0  0
   27.7900   28.2700   35.6200 N   0  0  0  0  0  0  0  0  0  0  0  0
   28.5400   28.3000   34.5100 C   0  0  0  0  0  0  0  0  0  0  0  0
   29.7700   28.9400   34.5600 C   0  0  0  0  0  0  0  0  0  0  0  0
   30.7000   28.8900   33.5000 C   0  0  0  0  0  0  0  0  0  0  0  0
   30.3700   28.1400   32.3700 C   0  0  0  0  0  0  0  0  0  0  0  0
   29.1200   27.5200   32.2800 C   0  0  0  0  0  0  0  0  0  0  0  0
   28.2100   27.6100   33.3300 C   0  0  0  0  0  0  0  0  0  0  0  0
   26.9700   26.9700   33.3100 C   0  0  0  0  0  0  0  0  0  0  0  0
   26.5300   26.2400   32.2200 N   0  0  0  0  0  0  0  0  0  0  0  0
   22.7809   26.0678   35.8484 C   0  0  0  0  0  0  0  0  0  0  0  0
   22.2644   25.8758   37.1020 N   0  0  0  0  0  0  0  0  0  0  0  0
   20.9246   25.7258   37.3055 C   0  0  0  0  0  0  0  0  0  0  0  0
   20.0753   25.7764   36.2056 C   0  0  0  0  0  0  0  0  0  0  0  0
   18.5854   25.6461   36.1581 C   0  0  0  0  0  0  0  0  0  0  0  0
   18.1970   24.4058   36.6339 F   0  0  0  0  0  0  0  0  0  0  0  0
   17.9921   26.6483   36.9058 F   0  0  0  0  0  0  0  0  0  0  0  0
   18.2352   25.7969   34.6514 C   0  0  0  0  0  0  0  0  0  0  0  0
   19.5594   25.9994   33.9859 C   0  0  0  0  0  0  0  0  0  0  0  0
   19.7303   26.1662   32.7497 O   0  0  0  0  0  0  0  0  0  0  0  0
   20.6083   25.9754   34.9679 C   0  0  0  0  0  0  0  0  0  0  0  0
   21.9406   26.1247   34.7709 N   0  0  0  0  0  0  0  0  0  0  0  0
   24.7562   26.3267   36.5708 H   0  0  0  0  0  0  0  0  0  0  0  0
   30.0500   29.4789   35.4574 H   0  0  0  0  0  0  0  0  0  0  0  0
   31.6575   29.3889   33.5759 H   0  0  0  0  0  0  0  0  0  0  0  0
   31.0739   28.0595   31.5517 H   0  0  0  0  0  0  0  0  0  0  0  0
   28.8953   26.9543   31.3856 H   0  0  0  0  0  0  0  0  0  0  0  0
   26.6263   26.6231   31.2536 H   0  0  0  0  0  0  0  0  0  0  0  0
   26.3235   25.2205   32.3142 H   0  0  0  0  0  0  0  0  0  0  0  0
   20.5356   25.5732   38.3033 H   0  0  0  0  0  0  0  0  0  0  0  0
   17.5829   26.6791   34.4755 H   0  0  0  0  0  0  0  0  0  0  0  0
   17.7484   24.8792   34.2569 H   0  0  0  0  0  0  0  0  0  0  0  0
  1  2  1  0
  2  3  2  0
  2  4  1  0
  4  5  2  0
  5  6  1  0
  6  7  2  0
  7  8  1  0
  8  9  2  0
  9 10  1  0
 10 11  2  0
 11 12  1  0
 12 13  2  0
 13 14  1  0
  1 15  1  0
 15 16  2  0
 16 17  1  0
 17 18  2  0
 18 19  1  0
 19 20  1  0
 19 21  1  0
 19 22  1  0
 22 23  1  0
 23 24  2  0
 23 25  1  0
 25 26  2  0
 13  4  1  0
 26 15  1  0
 12  7  1  0
 25 18  1  0
  1 27  1  0
  8 28  1  0
  9 29  1  0
 10 30  1  0
 11 31  1  0
 14 32  1  0
 14 33  1  0
 17 34  1  0
 22 35  1  0
 22 36  1  0
M  END
$$$$
confid_3
     RDKit          3D

 36 39  0  0  0  0  0  0  0  0999 V2000
   24.2000   26.2400   35.6900 N   0  0  0  0  0  0  0  0  0  0  0  0
   24.8500   26.2800   34.4800 C   0  0  0  0  0  0  0  0  0  0  0  0
   24.3100   25.7400   33.5400 O   0  0  0  0  0  0  0  0  0  0  0  0
   26.1800   26.9700   34.4700 C   0  0  0  0  0  0  0  0  0  0  0  0
   26.6500   27.6000   35.5500 N   0  0  0  0  0  0  0  0  0  0  0  0
   27.7900   28.2700   35.6200 N   0  0  0  0  0  0  0  0  0  0  0  0
   28.5400   28.3000   34.5100 C   0  0  0  0  0  0  0  0  0  0  0  0
   29.7700   28.9400   34.5600 C   0  0  0  0  0  0  0  0  0  0  0  0
   30.7000   28.8900   33.5000 C   0  0  0  0  0  0  0  0  0  0  0  0
   30.3700   28.1400   32.3700 C   0  0  0  0  0  0  0  0  0  0  0  0
   29.1200   27.5200   32.2800 C   0  0  0  0  0  0  0  0  0  0  0  0
   28.2100   27.6100   33.3300 C   0  0  0  0  0  0  0  0  0  0  0  0
   26.9700   26.9700   33.3100 C   0  0  0  0  0  0  0  0  0  0  0  0
   26.5300   26.2400   32.2200 N   0  0  0  0  0  0  0  0  0  0  0  0
   22.7810   26.0670   35.8486 C   0  0  0  0  0  0  0  0  0  0  0  0
   21.9381   26.1246   34.7688 N   0  0  0  0  0  0  0  0  0  0  0  0
   20.5897   25.9807   34.9091 C   0  0  0  0  0  0  0  0  0  0  0  0
   20.0724   25.7771   36.1836 C   0  0  0  0  0  0  0  0  0  0  0  0
   18.6481   25.5963   36.6048 C   0  0  0  0  0  0  0  0  0  0  0  0
   17.9034   26.7140   36.2707 F   0  0  0  0  0  0  0  0  0  0  0  0
   18.1098   24.4708   36.0055 F   0  0  0  0  0  0  0  0  0  0  0  0
   18.7237   25.4210   38.1472 C   0  0  0  0  0  0  0  0  0  0  0  0
   20.1839   25.5196   38.4561 C   0  0  0  0  0  0  0  0  0  0  0  0
   20.6879   25.4314   39.6064 O   0  0  0  0  0  0  0  0  0  0  0  0
   20.9266   25.7304   37.2438 C   0  0  0  0  0  0  0  0  0  0  0  0
   22.2665   25.8745   37.0991 N   0  0  0  0  0  0  0  0  0  0  0  0
   24.7563   26.3268   36.5708 H   0  0  0  0  0  0  0  0  0  0  0  0
   30.0500   29.4789   35.4574 H   0  0  0  0  0  0  0  0  0  0  0  0
   31.6575   29.3889   33.5759 H   0  0  0  0  0  0  0  0  0  0  0  0
   31.0739   28.0595   31.5517 H   0  0  0  0  0  0  0  0  0  0  0  0
   28.8953   26.9543   31.3856 H   0  0  0  0  0  0  0  0  0  0  0  0
   26.6263   26.6231   31.2536 H   0  0  0  0  0  0  0  0  0  0  0  0
   26.3236   25.2205   32.3142 H   0  0  0  0  0  0  0  0  0  0  0  0
   19.9408   26.0272   34.0449 H   0  0  0  0  0  0  0  0  0  0  0  0
   18.1691   26.2281   38.6723 H   0  0  0  0  0  0  0  0  0  0  0  0
   18.3358   24.4276   38.4595 H   0  0  0  0  0  0  0  0  0  0  0  0
  1  2  1  0
  2  3  2  0
  2  4  1  0
  4  5  2  0
  5  6  1  0
  6  7  2  0
  7  8  1  0
  8  9  2  0
  9 10  1  0
 10 11  2  0
 11 12  1  0
 12 13  2  0
 13 14  1  0
  1 15  1  0
 15 16  2  0
 16 17  1  0
 17 18  2  0
 18 19  1  0
 19 20  1  0
 19 21  1  0
 19 22  1  0
 22 23  1  0
 23 24  2  0
 23 25  1  0
 25 26  2  0
 13  4  1  0
 26 15  1  0
 12  7  1  0
 25 18  1  0
  1 27  1  0
  8 28  1  0
  9 29  1  0
 10 30  1  0
 11 31  1  0
 14 32  1  0
 14 33  1  0
 17 34  1  0
 22 35  1  0
 22 36  1  0
M  END
$$$$
confid_4
     RDKit          3D

 36 39  0  0  0  0  0  0  0  0999 V2000
   24.2000   26.2400   35.6900 N   0  0  0  0  0  0  0  0  0  0  0  0
   24.8500   26.2800   34.4800 C   0  0  0  0  0  0  0  0  0  0  0  0
   24.3100   25.7400   33.5400 O   0  0  0  0  0  0  0  0  0  0  0  0
   26.1800   26.9700   34.4700 C   0  0  0  0  0  0  0  0  0  0  0  0
   26.6500   27.6000   35.5500 N   0  0  0  0  0  0  0  0  0  0  0  0
   27.7900   28.2700   35.6200 N   0  0  0  0  0  0  0  0  0  0  0  0
   28.5400   28.3000   34.5100 C   0  0  0  0  0  0  0  0  0  0  0  0
   29.7700   28.9400   34.5600 C   0  0  0  0  0  0  0  0  0  0  0  0
   30.7000   28.8900   33.5000 C   0  0  0  0  0  0  0  0  0  0  0  0
   30.3700   28.1400   32.3700 C   0  0  0  0  0  0  0  0  0  0  0  0
   29.1200   27.5200   32.2800 C   0  0  0  0  0  0  0  0  0  0  0  0
   28.2100   27.6100   33.3300 C   0  0  0  0  0  0  0  0  0  0  0  0
   26.9700   26.9700   33.3100 C   0  0  0  0  0  0  0  0  0  0  0  0
   26.5300   26.2400   32.2200 N   0  0  0  0  0  0  0  0  0  0  0  0
   22.7807   26.0696   35.8482 C   0  0  0  0  0  0  0  0  0  0  0  0
   22.2637   25.8776   37.1015 N   0  0  0  0  0  0  0  0  0  0  0  0
   20.9237   25.7293   37.3048 C   0  0  0  0  0  0  0  0  0  0  0  0
   20.0746   25.7818   36.2047 C   0  0  0  0  0  0  0  0  0  0  0  0
   18.5846   25.6535   36.1570 C   0  0  0  0  0  0  0  0  0  0  0  0
   17.9926   26.6562   36.9052 F   0  0  0  0  0  0  0  0  0  0  0  0
   18.1944   24.4135   36.6320 F   0  0  0  0  0  0  0  0  0  0  0  0
   18.2348   25.8057   34.6503 C   0  0  0  0  0  0  0  0  0  0  0  0
   19.5594   26.0068   33.9851 C   0  0  0  0  0  0  0  0  0  0  0  0
   19.7307   26.1741   32.7491 O   0  0  0  0  0  0  0  0  0  0  0  0
   20.6081   25.9807   34.9673 C   0  0  0  0  0  0  0  0  0  0  0  0
   21.9406   26.1283   34.7706 N   0  0  0  0  0  0  0  0  0  0  0  0
   24.7563   26.3257   36.5709 H   0  0  0  0  0  0  0  0  0  0  0  0
   30.0498   29.4792   35.4573 H   0  0  0  0  0  0  0  0  0  0  0  0
   31.6569   29.3901   33.5753 H   0  0  0  0  0  0  0  0  0  0  0  0
   31.0715   28.0646   31.5492 H   0  0  0  0  0  0  0  0  0  0  0  0
   28.8856   26.9764   31.3746 H   0  0  0  0  0  0  0  0  0  0  0  0
   25.6751   26.5393   31.7004 H   0  0  0  0  0  0  0  0  0  0  0  0
   27.1524   25.5359   31.7654 H   0  0  0  0  0  0  0  0  0  0  0  0
   20.5344   25.5767   38.3025 H   0  0  0  0  0  0  0  0  0  0  0  0
   17.7467   24.8890   34.2552 H   0  0  0  0  0  0  0  0  0  0  0  0
   17.5837   26.6890   34.4749 H   0  0  0  0  0  0  0  0  0  0  0  0
  1  2  1  0
  2  3  2  0
  2  4  1  0
  4  5  2  0
  5  6  1  0
  6  7  2  0
  7  8  1  0
  8  9  2  0
  9 10  1  0
 10 11  2  0
 11 12  1  0
 12 13  2  0
 13 14  1  0
  1 15  1  0
 15 16  2  0
 16 17  1  0
 17 18  2  0
 18 19  1  0
 19 20  1  0
 19 21  1  0
 19 22  1  0
 22 23  1  0
 23 24  2  0
 23 25  1  0
 25 26  2  0
 13  4  1  0
 26 15  1  0
 12  7  1  0
 25 18  1  0
  1 27  1  0
  8 28  1  0
  9 29  1  0
 10 30  1  0
 11 31  1  0
 14 32  1  0
 14 33  1  0
 17 34  1  0
 22 35  1  0
 22 36  1  0
M  END
$$$$
confid_5
     RDKit          3D

 36 39  0  0  0  0  0  0  0  0999 V2000
   24.2000   26.2400   35.6900 N   0  0  0  0  0  0  0  0  0  0  0  0
   24.8500   26.2800   34.4800 C   0  0  0  0  0  0  0  0  0  0  0  0
   24.3100   25.7400   33.5400 O   0  0  0  0  0  0  0  0  0  0  0  0
   26.1800   26.9700   34.4700 C   0  0  0  0  0  0  0  0  0  0  0  0
   26.6500   27.6000   35.5500 N   0  0  0  0  0  0  0  0  0  0  0  0
   27.7900   28.2700   35.6200 N   0  0  0  0  0  0  0  0  0  0  0  0
   28.5400   28.3000   34.5100 C   0  0  0  0  0  0  0  0  0  0  0  0
   29.7700   28.9400   34.5600 C   0  0  0  0  0  0  0  0  0  0  0  0
   30.7000   28.8900   33.5000 C   0  0  0  0  0  0  0  0  0  0  0  0
   30.3700   28.1400   32.3700 C   0  0  0  0  0  0  0  0  0  0  0  0
   29.1200   27.5200   32.2800 C   0  0  0  0  0  0  0  0  0  0  0  0
   28.2100   27.6100   33.3300 C   0  0  0  0  0  0  0  0  0  0  0  0
   26.9700   26.9700   33.3100 C   0  0  0  0  0  0  0  0  0  0  0  0
   26.5300   26.2400   32.2200 N   0  0  0  0  0  0  0  0  0  0  0  0
   23.2104   25.2614   36.0538 C   0  0  0  0  0  0  0  0  0  0  0  0
   22.5059   25.4207   37.2172 N   0  0  0  0  0  0  0  0  0  0  0  0
   21.5711   24.5112   37.6146 C   0  0  0  0  0  0  0  0  0  0  0  0
   21.3428   23.3986   36.8122 C   0  0  0  0  0  0  0  0  0  0  0  0
   20.3878   22.2658   37.0209 C   0  0  0  0  0  0  0  0  0  0  0  0
   19.0866   22.7360   37.0582 F   0  0  0  0  0  0  0  0  0  0  0  0
   20.6850   21.5981   38.1962 F   0  0  0  0  0  0  0  0  0  0  0  0
   20.6099   21.3451   35.7885 C   0  0  0  0  0  0  0  0  0  0  0  0
   21.6707   22.0420   34.9970 C   0  0  0  0  0  0  0  0  0  0  0  0
   22.1521   21.6281   33.9098 O   0  0  0  0  0  0  0  0  0  0  0  0
   22.0592   23.2549   35.6627 C   0  0  0  0  0  0  0  0  0  0  0  0
   22.9878   24.1613   35.2724 N   0  0  0  0  0  0  0  0  0  0  0  0
   24.4122   26.9681   36.4091 H   0  0  0  0  0  0  0  0  0  0  0  0
   30.0500   29.4789   35.4574 H   0  0  0  0  0  0  0  0  0  0  0  0
   31.6575   29.3889   33.5759 H   0  0  0  0  0  0  0  0  0  0  0  0
   31.0739   28.0595   31.5517 H   0  0  0  0  0  0  0  0  0  0  0  0
   28.8953   26.9543   31.3856 H   0  0  0  0  0  0  0  0  0  0  0  0
   26.6266   26.6229   31.2536 H   0  0  0  0  0  0  0  0  0  0  0  0
   26.3232   25.2206   32.3143 H   0  0  0  0  0  0  0  0  0  0  0  0
   21.0233   24.6555   38.5362 H   0  0  0  0  0  0  0  0  0  0  0  0
   20.9654   20.3384   36.0964 H   0  0  0  0  0  0  0  0  0  0  0  0
   19.6832   21.2524   35.1824 H   0  0  0  0  0  0  0  0  0  0  0  0
  1  2  1  0
  2  3  2  0
  2  4  1  0
  4  5  2  0
  5  6  1  0
  6  7  2  0
  7  8  1  0
  8  9  2  0
  9 10  1  0
 10 11  2  0
 11 12  1  0
 12 13  2  0
 13 14  1  0
  1 15  1  0
 15 16  2  0
 16 17  1  0
 17 18  2  0
 18 19  1  0
 19 20  1  0
 19 21  1  0
 19 22  1  0
 22 23  1  0
 23 24  2  0
 23 25  1  0
 25 26  2  0
 13  4  1  0
 26 15  1  0
 12  7  1  0
 25 18  1  0
  1 27  1  0
  8 28  1  0
  9 29  1  0
 10 30  1  0
 11 31  1  0
 14 32  1  0
 14 33  1  0
 17 34  1  0
 22 35  1  0
 22 36  1  0
M  END
$$$$
